%chk=E:\YangJ\Amiano\Asp\ts1\s\Asp-S-opt-freq-ts1-6-31g.chk
# opt=(calcfc,ts) freq rb3lyp/6-31g 

Asp-S-opt-freq-ts1-6-31g

0 1
 N              
 H                  1            B1
 C                  1            B2    2            A1
 H                  3            B3    1            A2    2            D1    0
 C                  3            B4    1            A3    2            D2    0
 C                  3            B5    1            A4    5            D3    0
 H                  5            B6    3            A5    1            D4    0
 H                  5            B7    3            A6    1            D5    0
 C                  5            B8    3            A7    1            D6    0
 O                  6            B9    3            A8    1            D7    0
 O                  9           B10    5            A9    3            D8    0
 H                  1           B11    3           A10    6            D9    0
 O                  6           B12    3           A11    1           D10    0
 H                 13           B13    6           A12    3           D11    0
 O                  9           B14    5           A13    3           D12    0
 H                 15           B15    9           A14    5           D13    0

   B1             1.01627518
   B2             1.45473164
   B3             1.09454656
   B4             1.54240933
   B5             1.53426212
   B6             1.09463847
   B7             1.09185685
   B8             1.51290164
   B9             1.20497554
   B10            1.20434322
   B11            1.01467192
   B12            1.35313564
   B13            1.28851962
   B14            1.35402933
   B15            0.96953770
   A1           110.56294760
   A2           108.47635268
   A3           110.34473095
   A4           113.24584566
   A5           106.71605662
   A6           112.41710691
   A7           113.66111976
   A8           125.13943276
   A9           125.49669436
   A10          110.28937558
   A11          112.07514895
   A12           59.27198617
   A13          111.66100977
   A14          107.13597452
   D1           170.72455466
   D2           -72.44807433
   D3           124.76125181
   D4           -34.69116843
   D5            82.56622098
   D6          -151.70802892
   D7             0.39119106
   D8            33.35256507
   D9           -64.51628076
   D10         -179.36799789
   D11         -179.81103610
   D12         -149.49887300
   D13         -176.85443129

 1 2 1.0 3 1.0 12 1.0
 2
 3 4 1.0 5 1.0 6 1.0
 4
 5 7 1.0 8 1.0 9 1.0
 6 10 2.0 13 1.0
 7
 8
 9 11 2.0 15 1.0
 10
 11
 12
 13
 14
 15 16 1.0
 16

