%chk=Ala-S-opt-freq-p3-6-31g.chk
# opt freq rb3lyp/6-31g 

Ala-S-opt-freq-p3-6-31g

0 1
 N                  1.15142800   -1.34819600    0.10423600
 H                  2.12861700   -1.57257000    0.02539800
 C                  0.68157000   -0.07732000   -0.01074400
 H                 -2.23070400    1.24580200    0.10488200
 C                  1.63714900    1.07332500   -0.05064500
 C                 -0.70149500    0.07103500   -0.14042400
 H                  2.40812000    0.93657100   -0.82189000
 H                  1.10233700    2.00269600   -0.24725800
 H                  2.15213000    1.17350900    0.91442800
 O                 -1.57643400   -1.10061400    0.02256400
 H                  0.46630500   -2.07936800    0.25037400
 O                 -1.25853800    1.33511900    0.14780300
 H                 -0.48365488   -0.38308609   -0.72401679

 1 2 1.0 3 1.5 11 1.0
 2
 3 5 1.0 6 1.5
 4 12 1.0
 5 7 1.0 8 1.0 9 1.0
 6 10 1.0 12 1.0
 7
 8
 9
 10
 11
 12
 13

