%chk=Ser-R-opt-freq-ts1-6-31g.chk
# opt=(calcfc,ts) freq b3lyp/6-31g

Ser-R-opt-freq-ts1-6-31g

0 1
 C              
 H                  1            B1
 C                  1            B2    2            A1
 O                  3            B3    1            A2    2            D1    0
 O                  3            B4    1            A3    4            D2    0
 H                  5            B5    3            A4    1            D3    0
 C                  1            B6    3            A5    4            D4    0
 H                  7            B7    1            A6    3            D5    0
 H                  7            B8    1            A7    3            D6    0
 O                  7            B9    1            A8    3            D7    0
 H                 10           B10    7            A9    1            D8    0
 N                  1           B11    3           A10    4            D9    0
 H                 12           B12    1           A11    3           D10    0
 H                 12           B13    1           A12    3           D11    0

   B1             1.10493804
   B2             1.52072917
   B3             1.20485041
   B4             1.35434926
   B5             1.30730861
   B6             1.52324005
   B7             1.09360445
   B8             1.09526831
   B9             1.43147270
   B10            0.96115627
   B11            1.46360731
   B12            1.01378830
   B13            1.01483567
   A1           105.56133238
   A2           126.02908689
   A3           111.31018780
   A4            62.34738518
   A5           110.60705585
   A6           109.91371040
   A7           109.25855144
   A8           106.23136542
   A9           108.96981224
   A10          110.39636323
   A11          111.08810302
   A12          108.75565210
   D1          -103.19992421
   D2           177.95506497
   D3          -179.53490798
   D4            12.53700329
   D5           -54.01601653
   D6            65.68809285
   D7          -174.45437352
   D8          -171.54593265
   D9           134.28792213
   D10           61.88132505
   D11         -178.69349060

 1 2 1.0 3 1.0 7 1.0 12 1.0
 2
 3 4 2.0 5 1.0
 4
 5
 6
 7 8 1.0 9 1.0 10 1.0
 8
 9
 10 11 1.0
 11
 12 13 1.0 14 1.0
 13
 14

