%chk=E:\YangJ\Amiano\Ala\ts1\s\Ala-S-opt-freq-ts1-6-31g.chk
# opt=(calcfc,ts) freq rb3lyp/6-31g  iop(1/11=1)

Ala-S-opt-freq-ts1-6-31g

0 1
 N                 -1.41539604   -1.08583426   -0.44261637
 H                 -1.19265104   -1.65817926    0.36614763
 C                 -0.65427804    0.15824574   -0.41023237
 H                 -0.62225204    0.58029074   -1.41926237
 C                 -1.19819104    1.24034374    0.55080463
 C                  0.77484296   -0.16838526   -0.01080537
 H                 -1.20807004    0.87074674    1.57985663
 H                 -0.59753304    2.15253274    0.50766863
 H                 -2.22277404    1.49583474    0.26783163
 O                  1.10736396   -1.09809026    0.68048163
 H                 -2.41237904   -0.90275826   -0.44586937
 O                  1.65359696    0.74711174   -0.48099237
 H                  2.47693884   -0.33396486    0.36362679

 1 2 1.0 3 1.0 11 1.0
 2
 3 4 1.0 5 1.0 6 1.0
 4
 5 7 1.0 8 1.0 9 1.0
 6 10 2.0 12 1.0
 7
 8
 9
 10
 11
 12
 13

