%chk=Val-S-opt-freq-ts1-6-31g.chk
# opt=(calcfc,ts) freq rb3lyp/6-31g

Val-S-opt-freq-ts1-6-31g

0 1
 N              
 H                  1            B1
 C                  1            B2    2            A1
 H                  3            B3    1            A2    2            D1    0
 C                  3            B4    1            A3    2            D2    0
 C                  3            B5    1            A4    5            D3    0
 C                  5            B6    3            A5    1            D4    0
 O                  6            B7    3            A6    1            D5    0
 H                  7            B8    5            A7    3            D6    0
 H                  7            B9    5            A8    3            D7    0
 H                  7           B10    5            A9    3            D8    0
 H                  1           B11    3           A10    6            D9    0
 O                  6           B12    3           A11    1           D10    0
 H                 13           B13    6           A12    3           D11    0
 H                  5           B14    3           A13    1           D12    0
 C                  5           B15    3           A14    1           D13    0
 H                 16           B16    5           A15    3           D14    0
 H                 16           B17    5           A16    3           D15    0
 H                 16           B18    5           A17    3           D16    0

   B1             1.01652042
   B2             1.46372697
   B3             1.09350140
   B4             1.55248509
   B5             1.52898541
   B6             1.53509781
   B7             1.20728042
   B8             1.09481928
   B9             1.09302158
   B10            1.09304840
   B11            1.01474251
   B12            1.35532511
   B13            1.23294354
   B14            1.09771695
   B15            1.53367900
   B16            1.09002634
   B17            1.09363676
   B18            1.09575862
   A1           109.76771230
   A2           108.33242150
   A3           110.26469730
   A4           111.29822740
   A5           112.53506569
   A6           124.76791276
   A7           111.16124543
   A8           110.03600378
   A9           112.48687737
   A10          111.03243953
   A11          112.84503499
   A12           56.91920990
   A13          106.27540112
   A14          110.28087585
   A15          111.22285066
   A16          110.34691532
   A17          110.66549902
   D1           168.52035924
   D2           -72.80943002
   D3           122.69992666
   D4           174.02439225
   D5           -46.68329866
   D6            59.27510441
   D7           178.46656873
   D8           -61.86489897
   D9           -68.43938989
   D10          132.63059674
   D11         -178.73641400
   D12           55.84676774
   D13          -61.65128251
   D14           53.15558406
   D15          173.86813802
   D16          -67.10508943

 1 2 1.0 3 1.0 12 1.0
 2
 3 4 1.0 5 1.0 6 1.0
 4
 5 7 1.0 15 1.0 16 1.0
 6 8 2.0 13 1.0
 7 9 1.0 10 1.0 11 1.0
 8
 9
 10
 11
 12
 13
 14
 15
 16 17 1.0 18 1.0 19 1.0
 17
 18
 19

