%chk=E:\YangJ\Amiano\val\ts1\s\Val-S-opt-freq-ts1-6-31++gdf.chk
# opt=(calcfc,ts) freq rb3lyp/6-311++g(d,p) iop(1/11=1)

Val-S-opt-freq-ts1-6-31++gdf

0 1
 N                  0.12197900    1.95630600   -0.09032700
 H                 -0.10307000    2.17814000    0.87332600
 C                  0.05914100    0.53151600   -0.41034300
 H                  0.21472900    0.41021300   -1.48691700
 C                  1.17188100   -0.26304600    0.34244500
 C                 -1.29689400   -0.03594100   -0.08597200
 C                  1.03973200   -1.78207100    0.12136100
 O                 -1.91784500    0.11170100    1.05841500
 H                  1.10574500   -2.03034400   -0.94554200
 H                  1.84927300   -2.30874100    0.63818000
 H                  0.09165400   -2.17832200    0.50125000
 H                 -0.33258300    2.57277100   -0.75225100
 O                 -2.06487900   -0.73169900   -0.88163900
 H                 -2.75536200   -0.61325700    0.27904000
 H                  1.03177200   -0.05410900    1.41424300
 C                  2.55766800    0.24674300   -0.08616700
 H                  2.62057200    1.33227900    0.02120900
 H                  3.34054200   -0.21845500    0.52373000
 H                  2.75550500   -0.00753400   -1.13612200

