%chk=Val-R-opt-freq-ts1-6-31g.chk
# opt=(calcfc,ts) freq rb3lyp/6-31g 

Val-R-opt-freq-ts1-6-31g

0 1
 C              
 H                  1            B1
 C                  1            B2    2            A1
 O                  3            B3    1            A2    2            D1    0
 O                  3            B4    1            A3    4            D2    0
 H                  5            B5    3            A4    1            D3    0
 C                  1            B6    3            A5    4            D4    0
 C                  7            B7    1            A6    3            D5    0
 H                  8            B8    7            A7    1            D6    0
 H                  8            B9    7            A8    1            D7    0
 H                  8           B10    7            A9    1            D8    0
 N                  1           B11    3           A10    4            D9    0
 H                 12           B12    1           A11    3           D10    0
 H                 12           B13    1           A12    3           D11    0
 H                  7           B14    1           A13   12           D12    0
 C                  7           B15    1           A14   12           D13    0
 H                 16           B16    7           A15    1           D14    0
 H                 16           B17    7           A16    1           D15    0
 H                 16           B18    7           A17    1           D16    0

   B1             1.10428243
   B2             1.52882512
   B3             1.20241182
   B4             1.36081276
   B5             1.28576596
   B6             1.54142518
   B7             1.53592850
   B8             1.09663345
   B9             1.09302512
   B10            1.09228070
   B11            1.47388425
   B12            1.01468465
   B13            1.01358283
   B14            1.09445820
   B15            1.53634129
   B16            1.09064320
   B17            1.09323041
   B18            1.09604235
   A1           106.07235211
   A2           127.41270060
   A3           110.44065043
   A4            60.54884433
   A5           111.95375128
   A6           111.47528526
   A7           111.43511256
   A8           110.00018263
   A9           112.23005725
   A10          106.04758232
   A11          110.09571698
   A12          110.33777913
   A13          107.12699052
   A14          110.94158570
   A15          111.94507985
   A16          110.23210594
   A17          110.91924085
   D1          -124.07814293
   D2          -179.31228173
   D3           171.58800723
   D4            -6.26800371
   D5           169.05615501
   D6            58.02753938
   D7           176.82751044
   D8           -64.04555252
   D9           116.49280518
   D10           55.48159242
   D11          173.68915409
   D12          -68.56485829
   D13          172.90864666
   D14           58.44243482
   D15          178.20245234
   D16          -62.91718258

 1 2 1.0 3 1.0 7 1.0 12 1.0
 2
 3 4 2.0 5 1.0
 4
 5
 6
 7 8 1.0 15 1.0 16 1.0
 8 9 1.0 10 1.0 11 1.0
 9
 10
 11
 12 13 1.0 14 1.0
 13
 14
 15
 16 17 1.0 18 1.0 19 1.0
 17
 18
 19

