%chk=Ala-S-opt-freq-tsa3-6-31g.chk
#p opt=(calcfc,ts) freq rb3lyp/6-31g  iop(1/11=1)

Ala-S-opt-freq-tsa3-6-31g

0 1
 N                  1.11832622    1.02939973    0.12413480
 H                  2.11555622    1.10532573    0.04167080
 C                  0.50038522   -0.21902027    0.09890080
 H                 -2.07291678   -1.70112627   -0.60672520
 C                  1.40841122   -1.41710427    0.09122080
 C                 -0.84065678   -0.32551827    0.09242380
 H                  2.05392822   -1.42001627    0.97987680
 H                  0.82714422   -2.33961227    0.08824080
 H                  2.06363622   -1.41005427   -0.79130820
 O                 -1.61741312    0.88950112   -0.03368392
 H                  0.55597822    1.85718373    0.02741280
 O                 -1.53090478   -1.54104927    0.19652980
 H                 -0.28929931    0.93692742    0.08536286

 1 2 1.0 3 1.0 11 1.0
 2
 3 5 1.0 6 2.0
 4 12 1.0
 5 7 1.0 8 1.0 9 1.0
 6 10 1.0 12 1.0
 7
 8
 9
 10
 11
 12
 13

 1 2 1.0 3 1.0 11 1.0
 2
 3 5 1.0 6 2.0
 4 12 1.0
 5 7 1.0 8 1.0 9 1.0
 6 10 1.0 12 1.0
 7
 8
 9
 10
 11
 12
 13







