%chk=Ala-S-opt-freq-tsa3-6-31g.chk
#p opt=(calcfc,ts) freq rb3lyp/6-31g iop(1/11=1)

Ala-S-opt-freq-tsa3-6-31g

0 1
 N                  1.29269471    1.03730881    0.21659596
 H                  2.28992471    1.11323481    0.13413196
 C                  0.67475371   -0.21111119    0.19136196
 H                 -2.05278123   -1.70546551   -0.51500896
 C                  1.58277971   -1.40919519    0.18368196
 C                 -0.82052123   -0.32985751    0.18414004
 H                  2.22829671   -1.41210719    1.07233796
 H                  1.00151271   -2.33170319    0.18070196
 H                  2.23800471   -1.40214519   -0.69884704
 O                 -1.62980223    0.82134949    0.09283804
 H                  0.73034671    1.86509281    0.11987396
 O                 -1.51076923   -1.54538851    0.28824604
 H                 -0.20587052    0.26962962   -0.92167174

 1 2 1.0 3 1.0 11 1.0
 2
 3 5 1.0 6 1.0
 4 12 1.0
 5 7 1.0 8 1.0 9 1.0
 6 10 1.0 12 1.0
 7
 8
 9
 10
 11
 12
 13

 1 2 1.0 3 1.0 11 1.0
 2
 3 5 1.0 6 1.0
 4 12 1.0
 5 7 1.0 8 1.0 9 1.0
 6 10 1.0 12 1.0
 7
 8
 9
 10
 11
 12
 13

 1 2 1.0 3 1.0 11 1.0
 2
 3 5 1.0 6 1.0
 4 12 1.0
 5 7 1.0 8 1.0 9 1.0
 6 10 1.0 12 1.0
 7
 8
 9
 10
 11
 12
 13

 1 2 1.0 3 1.0 11 1.0
 2
 3 5 1.0 6 1.0
 4 12 1.0
 5 7 1.0 8 1.0 9 1.0
 6 10 1.0 12 1.0
 7
 8
 9
 10
 11
 12
 13

 1 2 1.0 3 1.0 11 1.0
 2
 3 5 1.0 6 1.0
 4 12 1.0
 5 7 1.0 8 1.0 9 1.0
 6 10 1.0 12 1.0
 7
 8
 9
 10
 11
 12
 13

 1 2 1.0 3 1.0 11 1.0
 2
 3 5 1.0 6 1.0
 4 12 1.0
 5 7 1.0 8 1.0 9 1.0
 6 10 1.0 12 1.0
 7
 8
 9
 10
 11
 12
 13

 1 2 1.0 3 1.0 11 1.0
 2
 3 5 1.0 6 1.0
 4 12 1.0
 5 7 1.0 8 1.0 9 1.0
 6 10 1.0 12 1.0
 7
 8
 9
 10
 11
 12
 13

 1 2 1.0 3 1.0 11 1.0
 2
 3 5 1.0 6 1.0
 4 12 1.0
 5 7 1.0 8 1.0 9 1.0
 6 10 1.0 12 1.0
 7
 8
 9
 10
 11
 12
 13

 1 2 1.0 3 1.0 11 1.0
 2
 3 5 1.0 6 2.0
 4 12 1.0
 5 7 1.0 8 1.0 9 1.0
 6 10 1.0 12 1.0
 7
 8
 9
 10
 11
 12
 13

















