%chk=E:\YangJ\Amiano\Ala\ts1\s\Ala-S-ts1-6-311++gdp-cpcm.chk
#p opt=(calcfc,ts) freq rb3lyp/6-311++g(d,p) scrf=(cpcm,solvent=water) iop(1/11=1)

Ala-S-opt-freq-ts1-6-311++gdp cpcm

0 1
 N                 -1.34453900   -1.18927800   -0.37267300
 H                 -1.16900000   -1.65007700    0.51504200
 C                 -0.70536500    0.12244100   -0.41811600
 H                 -0.75833800    0.49718900   -1.44404500
 C                 -1.29867000    1.19610000    0.52477100
 C                  0.75325700   -0.03104900   -0.09531700
 H                 -1.23125400    0.87394800    1.56705300
 H                 -0.78029800    2.15209600    0.41608000
 H                 -2.35215200    1.34720100    0.27708600
 O                  1.23533800   -0.89387500    0.71013200
 H                 -2.34735400   -1.10455200   -0.49783200
 O                  1.68192900    0.72293000   -0.53238400
 H                  2.21670800   -0.14824900    0.28531300

