%chk=Ser-S-opt-freq-cpcm-w-tsa3-6-311++gdp.chk
#p opt=(calcfc,ts) freq rb3lyp/6-311++g(d,p) scrf=(cpcm,solvent=water) iop(1/11=1) nosymm

Ser-S-opt-freq-cpcm-w-tsa3-6-311++gdp

0 1
 N                 -0.03812624    2.17206912    0.34843830
 H                  0.42754576    2.60257412    1.14324730
 C                  0.15456876    0.75385012    0.32246330
 H                 -0.23084920   -1.20852369   -1.09749674
 C                  1.58720876    0.29753112    0.25794830
 C                 -0.87744624   -0.10321288    0.29707930
 H                  2.18999676    1.10570412   -0.16786470
 H                  1.98521376    0.06368712    1.25349730
 O                  1.69516276   -0.88230688   -0.57534770
 O                 -2.00443190    0.11433579    1.03516133
 H                  2.53363276   -1.32037588   -0.38870470
 H                 -1.02406824    2.39998312    0.41830830
 O                 -0.95620862   -1.24769643   -0.43958857
 H                 -0.87007812    0.79857444    1.51115944

