%chk=Ala-S-opt-freq-cpcm-w-pf3-6-311++gdp.chk
#p opt freq rb3lyp/6-311++g(d,p) scrf=(cpcm,solvent=water) nosymm

Ala-S-opt-freq-cpcm-w-pf3-6-311++gdp

0 1
 N                 -1.33257406   -1.17218818    0.53932632
 H                 -2.25578106   -1.14358118    0.11778632
 C                 -0.60286406    0.02604682    0.29968832
 H                 -0.04686856    0.67132403    0.76378565
 C                 -1.36567406    1.29708082    0.53053332
 C                  0.69494194   -0.01670118   -0.02568068
 H                 -1.82925106    1.28503182    1.52298532
 H                 -0.72789806    2.17902482    0.47048432
 H                 -2.17286406    1.41471282   -0.20221968
 O                  1.37161294   -1.21053918   -0.07174668
 H                 -0.84157106   -1.99198418    0.20048532
 O                  1.53618294    1.05910182   -0.22224968
 H                  2.05300194   -1.15432618   -0.75483668

