%chk=Ala-S-opt-freq-tsa3-6-31g.chk
#p opt=(calcfc,ts) freq rb3lyp/6-31g iop(1/11=1)

Ala-S-opt-freq-tsa3-6-31g

0 1
 N                  1.24012014    1.35282520    0.05614030
 H                  2.23735014    1.42875120   -0.02632370
 C                  0.62217914    0.10440520    0.03090630
 H                 -0.02163694   -1.11734029   -0.02913310
 C                  1.53020514   -1.09367880    0.02322630
 C                 -0.71886286   -0.00209280    0.02442930
 H                  2.17572214   -1.09659080    0.91188230
 H                  0.94893814   -2.01618680    0.02024630
 H                  2.18543014   -1.08662880   -0.85930270
 O                 -1.52814386    1.14911420   -0.06687270
 H                  0.67777214    2.18060920   -0.04058170
 O                 -1.40911086   -1.21762380    0.12853530
 H                 -2.14117186    1.19726320    0.69806630

 1 2 1.0 3 1.0 11 1.0
 2
 3 5 1.0 6 2.0
 4
 5 7 1.0 8 1.0 9 1.0
 6 10 1.0 12 1.0
 7
 8
 9
 10 13 1.0
 11
 12
 13

 1 2 1.0 3 1.0 11 1.0
 2
 3 5 1.0 6 2.0
 4
 5 7 1.0 8 1.0 9 1.0
 6 10 1.0 12 1.0
 7
 8
 9
 10 13 1.0
 11
 12
 13

 1 2 1.0 3 1.0 11 1.0
 2
 3 5 1.0 6 2.0
 4
 5 7 1.0 8 1.0 9 1.0
 6 10 1.0 12 1.0
 7
 8
 9
 10 13 1.0
 11
 12
 13





