%chk=E:\YangJ\Amiano\phe\ts1\r\Phe-R-opt-freq-ts1-6-31g.chk
# opt=(calcfc,ts) freq rb3lyp/6-31g iop(1/11=1)

Phe-R-opt-freq-ts1-6-31g

0 1
 C                  0.00000000    0.00000000    0.00000000
 H                  0.00000000    0.00000000    1.09157640
 C                  1.47352065    0.00000000   -0.40735286
 O                  2.39841901    0.28698859    0.31063474
 O                  1.64460121   -0.34208612   -1.71189697
 H                  2.74121177    0.32412330   -1.01761113
 C                 -0.65073059    1.32387285   -0.48827069
 H                  0.05934792    2.14007276   -0.32532846
 H                 -0.80691308    1.24850612   -1.56898709
 C                 -1.94874060    1.64632925    0.21616039
 C                 -3.16722245    1.11721848   -0.22248572
 C                 -1.94995929    2.47931669    1.34088174
 C                 -4.35390174    1.41173160    0.44575583
 H                 -3.18320022    0.46381956   -1.08666274
 C                 -3.13469529    2.77508717    2.01280505
 H                 -1.01478200    2.90520589    1.69182548
 C                 -4.34197109    2.24090108    1.56637311
 H                 -5.28905603    0.99285433    0.09050998
 H                 -3.11457223    3.42583584    2.88009909
 H                 -5.26579875    2.47152652    2.08502280
 N                 -0.76505396   -1.15389519   -0.46076273
 H                 -0.63292830   -1.30308408   -1.45596928
 H                 -0.48358044   -2.00119381    0.02001666

 1 2 1.0 3 1.0 7 1.0 21 1.0
 2
 3 4 2.0 5 1.0
 4
 5
 6
 7 8 1.0 9 1.0 10 1.0
 8
 9
 10 11 1.5 12 1.5
 11 13 1.5 14 1.0
 12 15 1.5 16 1.0
 13 17 1.5 18 1.0
 14
 15 17 1.5 19 1.0
 16
 17 20 1.0
 18
 19
 20
 21 22 1.0 23 1.0
 22
 23

 1 2 1.0 3 1.0 7 1.0 21 1.0
 2
 3 4 2.0 5 1.0
 4
 5
 6
 7 8 1.0 9 1.0 10 1.0
 8
 9
 10 11 1.5 12 1.5
 11 13 1.5 14 1.0
 12 15 1.5 16 1.0
 13 17 1.5 18 1.0
 14
 15 17 1.5 19 1.0
 16
 17 20 1.0
 18
 19
 20
 21 22 1.0 23 1.0
 22
 23



