%chk=Ala-S-opt-freq-tsb1-6-31g.chk
# freq rb3lyp/6-31g iop(1/11=1)

Ala-S-opt-freq-tsb1-6-31g

0 1
 N                 -1.43424619   -1.04884692   -0.37632010
 H                 -1.21150119   -1.62119192    0.43244390
 C                 -0.67312819    0.19523308   -0.34393610
 H                  0.03861459   -1.32524516   -0.44178101
 C                 -1.21704119    1.27733108    0.61710090
 C                  0.75599281   -0.13139792    0.05549090
 H                 -1.22692019    0.90773408    1.64615290
 H                 -0.61638319    2.18952008    0.57396490
 H                 -2.24162419    1.53282208    0.33412790
 O                  1.08851381   -1.06110292    0.74677790
 H                 -2.43122919   -0.86577092   -0.37957310
 O                  1.63474681    0.78409908   -0.41469610
 H                  2.51089681    0.54141108   -0.07835210

