%chk=Asp-S-opt-freq-pcmc-w-6-311++g(d,p).chk
#p opt freq rb3lyp/6-311++g(d,p) scrf=(cpcm,solvent=water) nosymm

Asp-S-opt-freq-pcmc-w-6-311++g(d,p)

0 1
 N                  1.62819000    1.81001200    0.07314900
 H                  2.05212300    1.75748200   -0.84898800
 C                  0.74026800    0.67876400    0.29250400
 H                  0.43416300    0.67673000    1.34337400
 C                 -0.54320300    0.83344500   -0.54880600
 C                  1.40731700   -0.67605700    0.02145800
 H                 -0.77032700    1.90372300   -0.58276300
 H                 -0.40832900    0.49904400   -1.57940600
 C                 -1.75279000    0.15807300    0.05917700
 O                  2.54941200   -0.82861000   -0.33112200
 O                 -1.97432500    0.04949900    1.23798000
 H                  2.39701700    1.78734000    0.73492700
 O                  0.55724100   -1.71007400    0.21933600
 H                  1.04081600   -2.52876600    0.03003700
 O                 -2.61590400   -0.27153500   -0.89154200
 H                 -3.38374600   -0.64522800   -0.43243900

