%chk=Ala-S-opt-freq-cpcm-w-pb1-6-311++gdp.chk
#p freq rb3lyp/6-311++g(d,p) scrf=check guess=tcheck
geom=(connectivity,allcheck) genchk

Ala-S-opt-freq-cpcm-w-pb1-6-311++gdp

0 1
 N                 -1.34619700   -1.22284000   -0.18510100
 H                 -2.01952500   -1.46510800    0.53808700
 C                 -0.75630000    0.07573500    0.05064100
 H                  0.64893800   -1.78266200   -0.05055500
 C                 -1.60709400    1.30957800    0.12231000
 C                  0.57782600    0.05710700    0.19297300
 H                 -2.34579000    1.23626500    0.93038300
 H                 -1.00427600    2.20218000    0.29889000
 H                 -2.16687900    1.45936100   -0.80940900
 O                  1.31252000   -1.08386200    0.11872500
 H                 -1.84658100   -1.25110900   -1.07042200
 O                  1.33758000    1.15539800    0.42666100
 H                  2.26485100    0.88752400    0.45655700

 1 2 1.0 3 1.0 11 1.0
 2
 3 5 1.0 6 2.0
 4 10 1.0
 5 7 1.0 8 1.0 9 1.0
 6 10 1.0 12 1.0
 7
 8
 9
 10
 11
 12 13 1.0
 13

