%chk=Ala-S-opt-freq-tsb2-6-31g.chk
# opt=(calcfc,ts) freq rb3lyp/6-31g iop(1/11=1)

Ala-S-opt-freq-tsb2-6-31g

0 1
 N                 -0.80548580    1.45331488   -0.32520798
 H                  1.10046520    1.58572288   -0.09629598
 C                 -0.72784180    0.23613588    0.07809602
 H                  1.04857524    0.50787576    1.56402946
 C                 -1.83462880   -0.76957112    0.19506002
 C                  0.68400220   -0.23930512    0.43761602
 H                 -2.79156480   -0.36252612   -0.14493098
 H                 -1.58227980   -1.65625812   -0.39616298
 H                 -1.94463680   -1.09992412    1.23618102
 O                  1.61390520    0.81307788    0.26565302
 H                 -1.74006980    1.77514688   -0.59804598
 O                  1.01051620   -1.36910412   -0.42128798
 H                  1.61539520   -1.03178112   -1.11525298

