%chk=Ala-S-opt-freq-tsa3-6-31g.chk
#p opt=(calcfc,ts) freq rb3lyp/6-31g iop(1/11=1)

Ala-S-opt-freq-tsa3-6-31g

0 1
 N                  1.31264401    1.07058100    0.14649545
 H                  2.30987401    1.14650700    0.06403145
 C                  0.69470301   -0.17783900    0.12126145
 H                 -2.03283193   -1.67219332   -0.58510947
 C                  1.60272901   -1.37592300    0.11358145
 C                 -0.80057193   -0.29658532    0.11403953
 H                  2.24824601   -1.37883500    1.00223745
 H                  1.02146201   -2.29843100    0.11060145
 H                  2.25795401   -1.36887300   -0.76894755
 O                 -1.60985293    0.85462168    0.02273753
 H                  0.75029601    1.89836500    0.04977345
 O                 -1.49081993   -1.51211632    0.21814553
 H                 -0.16395717    0.60199903    1.07234259

 1 2 1.0 3 1.0 11 1.0
 2
 3 5 1.0 6 1.0
 4 12 1.0
 5 7 1.0 8 1.0 9 1.0
 6 10 1.0 12 1.0
 7
 8
 9
 10
 11
 12
 13

 1 2 1.0 3 1.0 11 1.0
 2
 3 5 1.0 6 1.0
 4 12 1.0
 5 7 1.0 8 1.0 9 1.0
 6 10 1.0 12 1.0
 7
 8
 9
 10
 11
 12
 13

 1 2 1.0 3 1.0 11 1.0
 2
 3 5 1.0 6 1.0
 4 12 1.0
 5 7 1.0 8 1.0 9 1.0
 6 10 1.0 12 1.0
 7
 8
 9
 10
 11
 12
 13

 1 2 1.0 3 1.0 11 1.0
 2
 3 5 1.0 6 1.0
 4 12 1.0
 5 7 1.0 8 1.0 9 1.0
 6 10 1.0 12 1.0
 7
 8
 9
 10
 11
 12
 13

 1 2 1.0 3 1.0 11 1.0
 2
 3 5 1.0 6 1.0
 4 12 1.0
 5 7 1.0 8 1.0 9 1.0
 6 10 1.0 12 1.0
 7
 8
 9
 10
 11
 12
 13

 1 2 1.0 3 1.0 11 1.0
 2
 3 5 1.0 6 1.0
 4 12 1.0
 5 7 1.0 8 1.0 9 1.0
 6 10 1.0 12 1.0
 7
 8
 9
 10
 11
 12
 13

 1 2 1.0 3 1.0 11 1.0
 2
 3 5 1.0 6 2.0
 4 12 1.0
 5 7 1.0 8 1.0 9 1.0
 6 10 1.0 12 1.0
 7
 8
 9
 10
 11
 12
 13













