%chk=Ser-S-opt-freq-ts1-6-31g.chk
# opt=(calcfc,ts) freq rb3lyp/6-31g 

Ser-S-opt-freq-ts1-6-31g

0 1
 N              
 H                  1            B1
 C                  1            B2    2            A1
 H                  3            B3    1            A2    2            D1    0
 C                  3            B4    1            A3    2            D2    0
 C                  3            B5    1            A4    5            D3    0
 H                  5            B6    3            A5    1            D4    0
 H                  5            B7    3            A6    1            D5    0
 O                  5            B8    3            A7    1            D6    0
 O                  6            B9    3            A8    1            D7    0
 H                  9           B10    5            A9    3            D8    0
 H                  1           B11    3           A10    5            D9    0
 O                  6           B12    3           A11    1           D10    0
 H                 13           B13    6           A12    3           D11    0

   B1             1.01608902
   B2             1.46234738
   B3             1.09110168
   B4             1.52953962
   B5             1.53074814
   B6             1.09494096
   B7             1.09718695
   B8             1.42567516
   B9             1.20738975
   B10            0.96112457
   B11            1.01388485
   B12            1.34923127
   B13            1.35222781
   A1           110.33047112
   A2           108.98714426
   A3           108.68749727
   A4           112.25966934
   A5           108.02965341
   A6           108.88985539
   A7           107.97976779
   A8           123.97110357
   A9           109.14522416
   A10          111.20447760
   A11          112.98321643
   A12           61.62628376
   D1           166.68859482
   D2           -74.92613835
   D3           120.99409557
   D4           -58.12364184
   D5            60.01366911
   D6          -179.18988914
   D7           -54.36828496
   D8          -169.38385605
   D9           165.64692855
   D10          123.68055473
   D11         -169.25302120

 1 2 1.0 3 1.0 12 1.0
 2
 3 4 1.0 5 1.0 6 1.0
 4
 5 7 1.0 8 1.0 9 1.0
 6 10 2.0 13 1.0
 7
 8
 9 11 1.0
 10
 11
 12
 13
 14

