%chk=Asp-S-opt-freq-cpcm-w-pa1-6-311++gdp.chk
#p freq rb3lyp/6-311++g(d,p) scrf=check guess=tcheck
geom=(connectivity,allcheck) genchk

Asp-S-opt-freq-cpcm-w-pa1-6-311++gdp

0 1
 N                 -1.48285600    1.87358200   -0.12883900
 H                 -1.65774500    2.02706200    0.86083300
 C                 -0.63045400    0.69464200   -0.33776400
 H                 -0.56640700    0.51897100   -1.41235600
 C                  0.76233700    0.96811000    0.22226300
 C                 -1.25522100   -0.54633800    0.30467900
 H                  1.13771700    1.90508100   -0.19780200
 H                  0.72977300    1.10286100    1.30712900
 C                  1.75656000   -0.12084800   -0.09193100
 O                 -2.12667400   -1.14957700   -0.52538900
 O                  1.53134600   -1.10883800   -0.75520600
 H                 -2.38365700    1.75123900   -0.58088800
 O                 -1.06149100   -0.91858600    1.44054400
 H                 -2.55394600   -1.88054900   -0.04986800
 O                  2.96199600    0.13332700    0.45178100
 H                  3.56576400   -0.58847800    0.21333600

 1 2 1.0 3 1.0 12 1.0
 2
 3 4 1.0 5 1.0 6 1.0
 4
 5 7 1.0 8 1.0 9 1.0
 6 10 1.0 13 2.0
 7
 8
 9 11 2.0 15 1.0
 10 14 1.0
 11
 12
 13
 14
 15 16 1.0
 16

