%chk=Val-S-opt-freq-cpcm-w-pa2-6-311++gdp.chk
#p freq rb3lyp/6-311++g(d,p) scrf=check guess=tcheck
geom=(connectivity,allcheck) genchk

Val-S-opt-freq-cpcm-w-pa2-6-311++gdp

0 1
 N                 -0.25057300    1.66144600    1.22028500
 H                  0.10301500    1.53531700    2.16318800
 C                 -0.14585700    0.46942700    0.44470800
 H                 -0.40697800   -0.87014500   -1.80949400
 C                  1.22937600   -0.18247600    0.46656800
 C                 -1.18050400    0.06544000   -0.30327100
 C                  1.20057100   -1.70204500    0.70329300
 O                 -2.42714800    0.62823200   -0.16078800
 H                  0.74362700   -2.24096100   -0.12960900
 H                  2.21957700   -2.08035100    0.82580700
 H                  0.63782900   -1.94548200    1.60829100
 H                 -1.20422600    2.00068100    1.27203300
 O                 -1.18129300   -0.94609600   -1.24058900
 H                 -2.84886200    0.67098500   -1.02920600
 H                  1.73791200    0.25796300    1.33178300
 C                  2.07650000    0.18812500   -0.76683000
 H                  2.10270700    1.27049100   -0.91399600
 H                  3.10511100   -0.16487200   -0.64691100
 H                  1.68642600   -0.26613000   -1.68438700

 1 2 1.0 3 1.0 12 1.0
 2
 3 5 1.0 6 2.0
 4 13 1.0
 5 7 1.0 15 1.0 16 1.0
 6 8 1.0 13 1.0
 7 9 1.0 10 1.0 11 1.0
 8 14 1.0
 9
 10
 11
 12
 13
 14
 15
 16 17 1.0 18 1.0 19 1.0
 17
 18
 19

