%chk=Ser-S-opt-freq-cpcm-w-pa3-6-311++gdp.chk
#p opt freq rb3lyp/6-311++g(d,p) scrf=(cpcm,solvent=water) nosymm

Ser-S-opt-freq-cpcm-w-pa3-6-311++gdp

0 1
 N                 -0.15164645    2.19337743    0.31975302
 H                  0.31402555    2.62388243    1.11456202
 C                  0.04104855    0.77515843    0.29377802
 H                 -0.00712445   -1.61974557   -0.23334498
 C                  1.47368855    0.31883943    0.22926302
 C                 -0.99096645   -0.08190457    0.26839402
 H                  2.07647655    1.12701243   -0.19654998
 H                  1.87169355    0.08499543    1.22481202
 O                  1.58164255   -0.86099857   -0.60403298
 O                 -2.27839245    0.34637243    0.41434702
 H                  2.42011255   -1.29906757   -0.41738998
 H                 -1.13758845    2.42129143    0.38962302
 O                 -0.91340845   -1.43110857    0.08850802
 H                 -0.69575394    1.16982050    0.78598118

