%chk=Ala-S-opt-freq-cpcm-w-pb3-6-311++gdp.chk
#p opt freq rb3lyp/6-311++g(d,p) scrf=(cpcm,solvent=water) nosymm

Ala-S-opt-freq-cpcm-w-pb3-6-311++gdp

0 1
 N                  1.29327040   -1.12661311    0.57500680
 H                  2.01861540   -1.59365111    0.04624280
 C                  0.67031240   -0.05185811   -0.18752320
 H                  0.32355598   -0.69665682   -0.82383649
 C                  1.45039440    1.23944389   -0.32467420
 C                 -0.74915060    0.02159689    0.04691180
 H                  2.37111540    1.05904089   -0.88724620
 H                  0.88523240    2.00907489   -0.85798120
 H                  1.74205940    1.65501089    0.65253580
 O                 -1.37896560   -0.97497611   -0.45811920
 H                  1.70264740   -0.79157311    1.44562380
 O                 -1.40775160    1.03661889    0.57810180
 H                 -2.35658760    0.92434689    0.41272980

