%chk=Ala-S-opt-freq-tsa3-6-31g.chk
#p opt=(calcfc,ts) freq rb3lyp/6-31g  iop(1/11=1)

Ala-S-opt-freq-tsa3-6-31g

0 1
 N                  1.13599792    1.02151066    0.10539180
 H                  2.13322792    1.09743666    0.02292780
 C                  0.51805692   -0.22690934    0.08015780
 H                 -2.05524508   -1.70901534   -0.62546820
 C                  1.42608292   -1.42499334    0.07247780
 C                 -0.82298508   -0.33340734    0.07368080
 H                  2.07159992   -1.42790534    0.96113380
 H                  0.84481592   -2.34750134    0.06949780
 H                  2.08130792   -1.41794334   -0.81005120
 O                 -1.59974142    0.88161205   -0.05242692
 H                  0.57364992    1.84929466    0.00866980
 O                 -1.51323308   -1.54893834    0.17778680
 H                 -0.24492053    0.93663605    1.25685198

 1 2 1.0 3 1.0 11 1.0
 2
 3 5 1.0 6 2.0
 4 12 1.0
 5 7 1.0 8 1.0 9 1.0
 6 10 1.0 12 1.0
 7
 8
 9
 10
 11
 12
 13

 1 2 1.0 3 1.0 11 1.0
 2
 3 5 1.0 6 2.0
 4 12 1.0
 5 7 1.0 8 1.0 9 1.0
 6 10 1.0 12 1.0
 7
 8
 9
 10
 11
 12
 13

 1 2 1.0 3 1.0 11 1.0
 2
 3 5 1.0 6 2.0
 4 12 1.0
 5 7 1.0 8 1.0 9 1.0
 6 10 1.0 12 1.0
 7
 8
 9
 10
 11
 12
 13









