%chk=Ala-S-opt-freq-pb1-6-31g.chk
#p opt=(calcfc,ts) freq rb3lyp/6-31g 

Ala-S-opt-freq-pb1-6-31g

0 1
 N                 -1.27355080   -1.19212579   -0.48920141
 H                 -1.90602380   -1.79253979    0.01745959
 C                 -0.63249780   -0.12411379    0.25752959
 H                 -0.28844051   -0.81310157    0.84623940
 C                 -1.40349980    1.17137921    0.40998159
 C                  0.78880020   -0.06453079    0.03637459
 H                 -2.32066280    0.99324921    0.98442259
 H                 -0.82419380    1.93819621    0.93685459
 H                 -1.70620180    1.59197721   -0.56426441
 O                  1.41648620   -1.10931079    0.54043659
 H                 -1.59734080   -0.96490179   -1.42497941
 O                  1.48082820    0.96268521   -0.48377141
 H                  2.44814720    0.86969221   -0.34292541

 1 2 1.0 3 1.0 11 1.0
 2
 3 5 1.0 6 1.5
 4
 5 7 1.0 8 1.0 9 1.0
 6 10 1.5 12 1.5
 7
 8
 9
 10
 11
 12 13 1.0
 13

