%chk=Ala-S-opt-freq-qst2-tsb1-6-31g.chk
#p freq rb3lyp/6-31g opt=QST2

Ala-S-opt-freq-6-311++g(d,p)

0 1
 N                 -1.41515100   -1.08615600   -0.44236500
 H                 -1.19240600   -1.65850100    0.36639900
 C                 -0.65403300    0.15792400   -0.40998100
 H                 -0.62200700    0.57996900   -1.41901100
 C                 -1.19794600    1.24002200    0.55105600
 C                  0.77508800   -0.16870700   -0.01055400
 H                 -1.20782500    0.87042500    1.58010800
 H                 -0.59728800    2.15221100    0.50792000
 H                 -2.22252900    1.49551300    0.26808300
 O                  1.10760900   -1.09841200    0.68073300
 H                 -2.41213400   -0.90308000   -0.44561800
 O                  1.65384200    0.74679000   -0.48074100
 H                  2.52999200    0.50410200   -0.14439700

Ala-S-opt-freq-pb1-6-31g

0 1
 N                 -1.36237200   -1.10313600    0.48248200
 H                 -1.12512100   -1.69368300    1.27089900
 C                 -0.66837100    0.18022600    0.43832500
 H                 -0.72545100    0.63841700    1.43037200
 C                 -1.34244000    1.11187800   -0.58782900
 C                  0.82224500    0.06999400    0.12540200
 H                 -2.39539200    1.22846600   -0.31873700
 H                 -0.86224200    2.09596200   -0.60544400
 H                 -1.28271400    0.67930800   -1.59270400
 O                  1.73899000    0.64230200    0.71991900
 H                 -1.34973700   -1.60990500   -0.39556700
 O                  1.05939800   -0.76491900   -0.95442300
 H                  2.02154400   -0.80827000   -1.14555600

