%chk=Ala-S-opt-freq-p1a-6-31g.chk
# opt freq rb3lyp/6-31g 

Ala-S-opt-freq-p1a-6-31g

0 1
 N                 -1.21871311   -1.09367792   -0.42714097
 H                 -1.04317411   -1.55447692    0.46057403
 C                 -0.57953911    0.21804108   -0.47258397
 H                 -0.63251211    0.59278908   -1.49851297
 C                 -1.17284411    1.29170008    0.47030303
 C                  0.87908289    0.06455108   -0.14978497
 H                 -1.10542811    0.96954808    1.51258503
 H                 -0.65447211    2.24769608    0.36161203
 H                 -2.22632611    1.44280108    0.22261803
 O                  1.36116389   -0.79827492    0.65566403
 H                 -2.22152811   -1.00895192   -0.55229997
 O                  1.80775489    0.81853008   -0.58685197
 H                  2.09088211   -0.24384908    0.33978097

 1 2 1.0 3 1.0 11 1.0
 2
 3 4 1.0 5 1.0 6 1.0
 4
 5 7 1.0 8 1.0 9 1.0
 6 10 2.0 12 2.0
 7
 8
 9
 10
 11
 12
 13

