%chk=Ala-S-opt-freq-tsa3-6-31g.chk
# opt=(calcfc,ts) freq rb3lyp/6-31g iop(1/11=1)

Ala-S-opt-freq-tsa3-6-31g

0 1
 N                  1.40126734    1.28886427   -0.01053011
 H                  2.39849734    1.36479027   -0.09299411
 C                  0.78332634    0.04044427   -0.03576411
 H                 -1.94420861   -1.45391005   -0.74213503
 C                  1.69135234   -1.15763973   -0.04344411
 C                 -0.71194861   -0.07830205   -0.04298603
 H                  2.33686934   -1.16055173    0.84521189
 H                  1.11008534   -2.08014773   -0.04642411
 H                  2.34657734   -1.15058973   -0.92597311
 O                 -1.52122961    1.07290495   -0.13428803
 H                  0.83891934    2.11664827   -0.10725211
 O                 -1.40219661   -1.29383305    0.06111997
 H                 -0.15455388    1.09735228    0.70343745

 1 2 1.0 3 1.0 11 1.0
 2
 3 5 1.0 6 1.0
 4 12 1.0
 5 7 1.0 8 1.0 9 1.0
 6 10 1.0 12 1.0
 7
 8
 9
 10
 11
 12
 13

