%chk=Ala-S-opt-freq-ts2-6-31g.chk
# opt=(calcfc,ts) freq rb3lyp/6-31g iop(1/11=1)

Ala-S-opt-freq-ts2-6-31g

0 1
 N                 -1.23522400   -1.15195100   -0.53716400
 H                 -1.10853500   -1.73365000    0.28129300
 C                 -0.66583100    0.18958000   -0.42947100
 H                  0.37056831    0.78904733   -1.33308341
 C                 -1.33505600    1.10323300    0.63016500
 C                  0.81758800    0.06933100   -0.13856200
 H                 -1.25399900    0.65271400    1.62502600
 H                 -0.87324300    2.09747200    0.65586800
 H                 -2.39665400    1.22461000    0.38732000
 O                  1.05366700   -0.78936800    0.92070500
 H                 -2.16323200   -1.19689900   -0.93658700
 O                  1.72882000    0.66914300   -0.70941800
 H                  2.01712900   -0.86240200    1.09380800

