%chk=Ser-S-opt-freq-cpcm-w-tsa2-6-311++gdp.chk
#p opt=(calcfc,ts) freq rb3lyp/6-311++g(d,p) scrf=(cpcm,solvent=water) iop(1/11=1) nosymm

Ser-S-opt-freq-cpcm-w-tsa2-6-311++gdp

0 1
 N                 -0.09482639    2.02051877   -0.01593510
 H                 -0.36080239    2.11521377    0.95981390
 C                  0.16136061    0.61994477   -0.35638010
 H                 -0.28860298   -0.40679957   -1.48606971
 C                  1.45157561    0.16635577    0.32836890
 C                 -1.00003339   -0.31493323   -0.01206910
 H                  2.27049161    0.79347277   -0.03723210
 H                  1.36285661    0.30108877    1.41220790
 O                  1.66486061   -1.20881523    0.00375690
 O                 -1.28362139   -0.30694923    1.30586090
 H                  2.43366661   -1.52503923    0.48983690
 H                 -0.85402039    2.39543777   -0.57517210
 O                 -1.62685039   -0.97013823   -0.81395110
 H                 -2.04368239   -0.88891423    1.46514690

