%chk=E:\YangJ\Amiano\ser\ts1\s\ts1-p\Ser-S-ts1-p-6-311++gdp-cpcm.chk
# opt freq rb3lyp/6-311++g(d,p) scrf=(cpcm,solvent=water)

Ser-S-ts1-p-6-311++gdp

0 1
 N                  0.20212500    2.02272800   -0.10282900
 H                 -0.04322500    2.14798700    0.87511800
 C                  0.31702600    0.60576600   -0.44160100
 H                  0.42437900    0.51331500   -1.52326300
 C                  1.55959100    0.01816300    0.23266600
 C                 -0.90719100   -0.18985500   -0.04412300
 H                  2.43282500    0.56561700   -0.13398100
 H                  1.48740100    0.15350500    1.31772400
 O                  1.62814000   -1.36659200   -0.10527600
 O                 -1.37406300   -0.26594600    1.14320900
 H                  2.34634700   -1.77187300    0.39216900
 H                 -0.51628200    2.47374600   -0.65955600
 O                 -1.65452100   -0.85359700   -0.83707700
 H                 -2.28062402   -0.91743325    1.36059187

