%chk=Phe-R-opt-freq-6-311gdp.chk
# opt freq b3lyp/6-311++g(d,p)

Phe-R-opt-freq--6-311++g(d,p)

0 1
 C                  1.37087300   -0.12147100    0.44953000
 H                  1.03164900    0.51078500    1.27215900
 C                  2.77721000    0.37225500    0.10945600
 O                  3.24652300    1.43195700    0.44124300
 O                  3.46330900   -0.52015000   -0.65278300
 H                  4.32815600   -0.12873000   -0.84748200
 C                  0.44619100    0.13073400   -0.77352100
 H                  0.69704800    1.10525200   -1.20285700
 H                  0.67550200   -0.62137400   -1.53494800
 C                 -1.02456600    0.10479200   -0.42533700
 C                 -1.74216000   -1.09527300   -0.38095800
 C                 -1.69683800    1.29503000   -0.12491800
 C                 -3.09418900   -1.10514100   -0.04419000
 H                 -1.23514600   -2.02682600   -0.60261800
 C                 -3.04880900    1.28907100    0.21375500
 H                 -1.15817500    2.23716800   -0.16122000
 C                 -3.75229100    0.08675900    0.25534900
 H                 -3.63420300   -2.04521900   -0.01573700
 H                 -3.55216800    2.22276600    0.43941200
 H                 -4.80487400    0.07903700    0.51545000
 N                  1.29523600   -1.51438300    0.87750100
 H                  1.77687700   -2.12199800    0.22253800
 H                  1.71750100   -1.64518100    1.79012100

