%chk=Asp-S-opt-freq-cpcm-w-pa1-6-311++gdp.chk
#p opt freq rb3lyp/6-311++g(d,p) scrf=(cpcm,solvent=water) nosymm

Asp-S-opt-freq-cpcm-w-pa1-6-311++gdp

0 1
 N                 -1.48630300    1.92875300   -0.15656000
 H                 -1.69038500    2.02041600    0.83471500
 C                 -0.63792500    0.76239000   -0.42503900
 H                 -0.54230300    0.66017000   -1.50656000
 C                  0.74157400    0.97558400    0.19778800
 C                 -1.30025600   -0.50040300    0.08089400
 H                  1.14744600    1.92474900   -0.16023000
 H                  0.67170000    1.05678100    1.28691200
 C                  1.71869400   -0.12453700   -0.13242700
 O                 -2.08438600   -1.23979900   -0.60282000
 O                  1.45754000   -1.12159800   -0.76842300
 H                 -2.37091400    1.85803900   -0.64940900
 O                 -1.24217500   -0.93797500    1.28049500
 H                 -2.01924608   -1.83750667    0.29165192
 O                  2.94087100    0.12741300    0.36793900
 H                  3.52968600   -0.60772800    0.13236800

