%chk=Asp-S-opt-freq-cpcm-w-pa1-6-311++gdp.chk
#p opt freq rb3lyp/6-311++g(d,p) scrf=(cpcm,solvent=water) nosymm

Asp-S-opt-freq-cpcm-w-pa1-6-311++gdp

0 1
 N                 -1.48746511    1.90404931   -0.11326382
 H                 -1.69154711    1.99571231    0.87801118
 C                 -0.63908711    0.73768631   -0.38174282
 H                 -0.54346511    0.63546631   -1.46326382
 C                  0.74041189    0.95088031    0.24108418
 C                 -1.30141811   -0.52510669    0.12419018
 H                  1.14628389    1.90004531   -0.11693382
 H                  0.67053789    1.03207731    1.33020818
 C                  1.71753189   -0.14924069   -0.08913082
 O                 -2.08554811   -1.26450269   -0.55952382
 O                  1.45637789   -1.14630169   -0.72512682
 H                 -2.37207611    1.83333531   -0.60611282
 O                 -1.24333711   -0.96267869    1.32379118
 H                 -2.10838873   -1.75003870    0.29143628
 O                  2.93970889    0.10270931    0.41123518
 H                  3.52852389   -0.63243169    0.17566418

 1 2 1.0 3 1.0 12 1.0
 2
 3 4 1.0 5 1.0 6 1.0
 4
 5 7 1.0 8 1.0 9 1.0
 6 10 2.0 13 2.0
 7
 8
 9 11 2.0 15 1.0
 10
 11
 12
 13
 14
 15 16 1.0
 16

