%chk=Ala-S-qst2-tsd3-6-311++gdp.chk
#p freq rb3lyp/6-311++g(d,p) opt=QST2

Ala-S-opt-freq-cpcm-w-pa2-6-311++gdp

0 1
 N                 -1.37183100   -1.21774900    0.50655800
 H                 -2.29503800   -1.18914200    0.08501800
 C                 -0.64212100   -0.01951400    0.26692000
 H                  1.07410700    1.66215400   -0.82886000
 C                 -1.40493100    1.25152000    0.49776500
 C                  0.65568500   -0.06226200   -0.05844900
 H                 -1.86850800    1.23947100    1.49021700
 H                 -0.76715500    2.13346400    0.43771600
 H                 -2.21212100    1.36915200   -0.23498800
 O                  1.33235600   -1.25610000   -0.10451500
 H                 -0.88082800   -2.03754500    0.16771700
 O                  1.49692600    1.01354100   -0.25501800
 H                  2.01374500   -1.19988700   -0.78760500

Ala-S-opt-freq-cpcm-w-pb1-6-311++gdp

0 1
 N                 -1.34619700   -1.22284000   -0.18510100
 H                 -2.01952500   -1.46510800    0.53808700
 C                 -0.75630000    0.07573500    0.05064100
 H                  0.64893800   -1.78266200   -0.05055500
 C                 -1.60709400    1.30957800    0.12231000
 C                  0.57782600    0.05710700    0.19297300
 H                 -2.34579000    1.23626500    0.93038300
 H                 -1.00427600    2.20218000    0.29889000
 H                 -2.16687900    1.45936100   -0.80940900
 O                  1.31252000   -1.08386200    0.11872500
 H                 -1.84658100   -1.25110900   -1.07042200
 O                  1.33758000    1.15539800    0.42666100
 H                  2.26485100    0.88752400    0.45655700

