%chk=Phe-R-opt-freq-ts1-6-31g.chk
# opt=(calcfc,ts) freq rb3lyp/6-31g

Phe-R-opt-freq-ts1-6-31g

0 1
 C              
 H                  1            B1
 C                  1            B2    2            A1
 O                  3            B3    1            A2    2            D1    0
 O                  3            B4    1            A3    4            D2    0
 H                  5            B5    3            A4    1            D3    0
 C                  1            B6    3            A5    4            D4    0
 H                  7            B7    1            A6    3            D5    0
 H                  7            B8    1            A7    3            D6    0
 C                  7            B9    1            A8    3            D7    0
 C                 10           B10    7            A9    1            D8    0
 C                 10           B11    7           A10    1            D9    0
 C                 11           B12   10           A11    7           D10    0
 H                 11           B13   10           A12    7           D11    0
 C                 12           B14   10           A13    7           D12    0
 H                 12           B15   10           A14    7           D13    0
 C                 15           B16   12           A15   10           D14    0
 H                 13           B17   11           A16   10           D15    0
 H                 15           B18   12           A17   10           D16    0
 H                 17           B19   15           A18   12           D17    0
 N                  1           B20    3           A19    4           D18    0
 H                 21           B21    1           A20    3           D19    0
 H                 21           B22    1           A21    3           D20    0

   B1             1.09157640
   B2             1.52879019
   B3             1.20553127
   B4             1.35945828
   B5             1.21480146
   B6             1.55386547
   B7             1.09404934
   B8             1.09454148
   B9             1.51163198
   B10            1.39895198
   B11            1.39959555
   B12            1.39337449
   B13            1.08350697
   B14            1.39375769
   B15            1.08586356
   B16            1.39361800
   B17            1.08451433
   B18            1.08447117
   B19            1.08427078
   B20            1.45913809
   B21            1.01496334
   B22            1.01404690
   A1           105.45339096
   A2           125.50551610
   A3           112.14712903
   A4            77.92519558
   A5           108.65771947
   A6           108.48207185
   A7           108.14075174
   A8           113.26035311
   A9           121.40670387
   A10          120.14507868
   A11          120.76198365
   A12          119.40684003
   A13          120.96095000
   A14          119.49844602
   A15          120.03937255
   A16          119.71172489
   A17          119.80941975
   A18          120.22119823
   A19          114.91185033
   A20          110.95385889
   A21          111.43917826
   D1           -17.00381638
   D2          -178.76038091
   D3           160.77997230
   D4            98.93715883
   D5           -40.10391400
   D6            75.51769142
   D7          -161.50274970
   D8           -85.26373673
   D9            94.08528102
   D10          179.29554489
   D11           -0.13068754
   D12         -179.23521764
   D13            1.07688444
   D14           -0.08943737
   D15          179.95398925
   D16         -179.76610760
   D17         -179.80964074
   D18         -136.31972055
   D19          -50.61993506
   D20           69.53437146

 1 2 1.0 3 1.0 7 1.0 21 1.0
 2
 3 4 2.0 5 1.0
 4
 5
 6
 7 8 1.0 9 1.0 10 1.0
 8
 9
 10 11 1.5 12 1.5
 11 13 1.5 14 1.0
 12 15 1.5 16 1.0
 13 17 1.5 18 1.0
 14
 15 17 1.5 19 1.0
 16
 17 20 1.0
 18
 19
 20
 21 22 1.0 23 1.0
 22
 23

