%chk=Ala-S-opt-freq-cpcm-w-pa3-6-311++gdp.chk
#p opt freq rhf/6-311++g(d,p) scrf=(cpcm,solvent=water) nosymm

Ala-S-opt-freq-cpcm-w-pa3-6-311++gdp

0 1
 N                  1.41449700    1.11664000    0.04733400
 H                  2.35632300    1.16806100    0.35305800
 C                  0.66986300   -0.07054900    0.38161700
 H                 -2.45771600   -0.81127200    0.01147600
 C                  1.23741500   -1.29670100   -0.34283400
 C                 -0.77610400    0.16056400    0.02984100
 H                  2.27795900   -1.42111100   -0.06825600
 H                  0.70034500   -2.19621100   -0.07856400
 H                  1.19068000   -1.14782400   -1.41352000
 O                 -1.25968100    1.21076600   -0.33242100
 H                  0.91930900    1.97573700   -0.00152400
 O                 -1.53310200   -0.94345700    0.20757000
 H                  0.66685000   -0.28220700    1.45305200

