%chk=Ala-S-opt-freq-pa3-6-31g.chk
# opt freq hf/6-31g

Ala-S-opt-freq-pa3-6-31g

0 1
 N                 -0.74172006   -1.44454443    0.12616428
 H                 -1.71863406   -1.66926343    0.20748828
 C                 -0.27187606   -0.17368543    0.24186928
 H                  2.63998694    1.14983257    0.12577628
 C                 -1.22736806    0.97703557    0.28128028
 C                  1.11116094   -0.02519343    0.37100228
 H                 -2.00670906    0.83400157    1.04284528
 H                 -0.69453906    1.90463457    0.49120528
 H                 -1.73168106    1.08571457   -0.68854372
 O                  1.98624894   -1.19679043    0.20809428
 H                 -0.05659206   -2.17570443   -0.02003172
 O                  1.66780594    1.23905057    0.08309928
 H                  0.40275808   -0.44442504    1.00662028

