%chk=Ala-S-opt-freq-ts3-6-31g.chk
# opt=qst2 freq rb3lyp/6-31g 

Ala-S-opt-freq-qst2-tsa3-6-31g

0 1
 N                  1.28351900    1.30692900    0.02724600
 H                  2.28074900    1.38285500   -0.05521800
 C                  0.66557800    0.05850900    0.00201200
 H                 -1.90772400   -1.42359700   -0.70361400
 C                  1.57360400   -1.13957500   -0.00566800
 C                 -0.67546400   -0.04798900   -0.00446500
 H                  2.21912100   -1.14248700    0.88298800
 H                  0.99233700   -2.06208300   -0.00864800
 H                  2.22882900   -1.13252500   -0.88819700
 O                 -1.48474500    1.10321800   -0.09576700
 H                  0.72117100    2.13471300   -0.06947600
 O                 -1.36571200   -1.26352000    0.09964100
 H                 -2.09777300    1.15136700    0.66917200

Ala-S-opt-freq-p3-6-31g

0 1
 N                  1.41478600    1.13555100    0.04268000
 H                  2.33635900    1.24115100    0.43525400
 C                  0.68211800   -0.06881700    0.37850300
 H                 -2.47598700   -0.79159400   -0.00219200
 C                  1.25295500   -1.30610600   -0.34804300
 C                 -0.77712100    0.15884200    0.03511600
 H                  1.20790400   -1.15375100   -1.43022200
 H                  2.30382900   -1.43505400   -0.06738600
 H                  0.70247200   -2.21192500   -0.08031000
 O                 -1.27485800    1.22898100   -0.32775400
 H                  0.87036200    1.97900600   -0.06208700
 O                 -1.53530700   -0.97721100    0.20899500
 H                  0.68517000   -0.29436300    1.46480300

