%chk=Asp-S-opt-6-311gdp.chk
#p opt=(calcfc,ts) freq rb3lyp/6-311++g(d,p) scrf=(cpcm,solvent=water) nosymm

Asp-S-opt-freq-cpcm-w-tsb1-6-311++gdp

0 1
 N                  1.65007919    1.81179026    0.07957566
 H                  2.07401219    1.75926026   -0.84256134
 C                  0.76215719    0.68054226    0.29893066
 H                  2.25856384    0.42424745   -0.29200393
 C                 -0.52131381    0.83522326   -0.54237934
 C                  1.42920619   -0.67427874    0.02788466
 H                 -0.74843781    1.90550126   -0.57633634
 H                 -0.38643981    0.50082226   -1.57297934
 C                 -1.73090081    0.15985126    0.06560366
 O                  2.57130119   -0.82683174   -0.32469534
 O                 -1.95243581    0.05127726    1.24440666
 H                  2.41890619    1.78911826    0.74135366
 O                  0.57913019   -1.70829574    0.22576266
 H                  1.06270519   -2.52698774    0.03646366
 O                 -2.59401481   -0.26975674   -0.88511534
 H                 -3.36185681   -0.64344974   -0.42601234

