%chk=Asp-S-opt-freq-cpcm-w-tsb1-6-311++gdp.chk
#p opt=(calcfc,ts) freq rb3lyp/6-311++g(d,p) scrf=(cpcm,solvent=water) iop(1/11=1)

Asp-S-opt-freq-cpcm-w-tsb1-6-311++gdp

0 1
 N                  1.89977954    1.86992672    0.03662905
 H                  2.24366054    1.87018672   -0.92010295
 C                  1.00572354    0.74251172    0.25866805
 H                  2.51357068    0.44893106   -0.09556357
 C                 -0.28063446    0.91061872   -0.57561595
 C                  1.65699654   -0.61875428   -0.02144095
 H                 -0.52256646    1.97828072   -0.58069995
 H                 -0.13649646    0.61057072   -1.61468395
 C                 -1.48985146    0.21204572    0.00287705
 O                  2.78675054   -0.78032928   -0.41850595
 O                 -1.73619646    0.10247672    1.18224105
 H                  2.71848054    1.78799572    0.63155205
 O                  0.81523154   -1.63931828    0.23221005
 H                  1.26784854   -2.47512728    0.03391505
 O                 -2.31785546   -0.23680028   -0.95988895
 H                 -3.10217546   -0.62044628   -0.53489095

