%chk=Ser-S-opt-freq-cpcm-w-pa2-6-311++gdp.chk
#p opt freq rb3lyp/6-311++g(d,p) scrf=(cpcm,solvent=water) nosymm

Ser-S-opt-freq-cpcm-w-pa2-6-311++gdp

0 1
 N                  0.00146222    2.07791951   -0.01089206
 H                  0.06490122    2.35134751    0.96947094
 C                  0.16008122    0.65671051   -0.22908606
 H                 -0.36557822   -0.62455851   -1.16003894
 C                  1.56648122    0.22840651    0.18198794
 C                 -0.91858078   -0.23539949    0.14885994
 H                  2.25733522    0.92137451   -0.30996806
 H                  1.70787322    0.33220951    1.27032494
 O                  1.84385822   -1.12438049   -0.19818906
 O                 -1.79330778   -0.07542249    1.11185294
 H                  2.63009622   -1.41205249    0.27805994
 H                 -0.87911478    2.42254451   -0.37360106
 O                 -1.00856178   -1.20081649   -0.69646706
 H                 -2.53969878   -0.68958149    1.01185094

