%chk=E:\YangJ\Amiano\ser\ts1\s\Ser-S-opt-freq-ts1-6-311++gdp.chk
# opt=(calcfc,ts) freq rb3lyp/6-311++g(d,p) iop(1/11=1)
geom=connectivity

Ser-S-opt-freq-ts1-6-311++gdp

0 1
 N                  0.11974600    2.00897800    0.04632900
 H                 -0.09762800    2.12451100    1.02869900
 C                  0.31097900    0.63163100   -0.39752500
 H                  0.41957200    0.62158000   -1.48386600
 C                  1.57640100    0.04431100    0.22595800
 C                 -0.88322000   -0.21942700   -0.04621200
 H                  2.42947600    0.66901100   -0.06111600
 H                  1.47953400    0.04613800    1.31989900
 O                  1.69171300   -1.30495200   -0.29842100
 O                 -1.20535700   -0.58627600    1.16956600
 H                  2.26638200   -1.85664000    0.26493500
 H                 -0.42590000    2.60133700   -0.56415100
 O                 -1.82690600   -0.60655000   -0.85814700
 H                 -2.21021600   -1.02564900    0.37398200

 1 2 1.0 3 1.0 12 1.0
 2
 3 4 1.0 5 1.0 6 1.0
 4
 5 7 1.0 8 1.0 9 1.0
 6 10 1.5 13 1.5
 7
 8
 9 11 1.0
 10
 11
 12
 13
 14

