%chk=Ala-S-opt-freq-tsb2-6-31g.chk
# opt=(calcfc,ts) freq rb3lyp/6-31g iop(1/11=1)

Ala-S-opt-freq-tsb2-6-31g

0 1
 N                 -0.18727360    1.22517712   -0.17210087
 H                  1.11151700    1.59243300   -0.11902500
 C                 -0.10962960    0.00799812    0.23120313
 H                  1.34425940   -0.84915388    1.61551313
 C                 -1.21641660   -0.99770888    0.34816713
 C                  1.30221440   -0.46744288    0.59072313
 H                 -2.17335260   -0.59066388    0.00817613
 H                 -0.96406760   -1.88439588   -0.24305587
 H                 -1.32642460   -1.32806188    1.38928813
 O                  2.23211740    0.58494012    0.41876013
 H                 -1.12185760    1.54700912   -0.44493887
 O                  1.62872840   -1.59724188   -0.26818087
 H                  2.23360740   -1.25991888   -0.96214587

