%chk=Ala-S-opt-freq-tsa3-6-31g.chk
#p opt=(calcfc,ts) freq rb3lyp/6-31g iop(1/11=1)

Ala-S-opt-freq-tsa3-6-31g

0 1
 N                  1.10319070    1.31327136    0.04130014
 H                  2.10042070    1.38919736   -0.04116386
 C                  0.48524970    0.06485136    0.01606614
 H                 -0.19972862   -1.06614875    0.13246582
 C                  1.39327570   -1.13323264    0.00838614
 C                 -0.85579230   -0.04164664    0.00958914
 H                  2.03879270   -1.13614464    0.89704214
 H                  0.81200870   -2.05574064    0.00540614
 H                  2.04850070   -1.12618264   -0.87414286
 O                 -1.66507330    1.10956036   -0.08171286
 H                  0.54084270    2.14105536   -0.05542186
 O                 -1.54604030   -1.25717764    0.11369514
 H                 -2.27810130    1.15770936    0.68322614

 1 2 1.0 3 1.0 11 1.0
 2
 3 5 1.0 6 2.0
 4
 5 7 1.0 8 1.0 9 1.0
 6 10 1.0 12 1.0
 7
 8
 9
 10 13 1.0
 11
 12
 13

 1 2 1.0 3 1.0 11 1.0
 2
 3 5 1.0 6 2.0
 4
 5 7 1.0 8 1.0 9 1.0
 6 10 1.0 12 1.0
 7
 8
 9
 10 13 1.0
 11
 12
 13

 1 2 1.0 3 1.0 11 1.0
 2
 3 5 1.0 6 2.0
 4
 5 7 1.0 8 1.0 9 1.0
 6 10 1.0 12 1.0
 7
 8
 9
 10 13 1.0
 11
 12
 13

 1 2 1.0 3 1.0 11 1.0
 2
 3 5 1.0 6 2.0
 4
 5 7 1.0 8 1.0 9 1.0
 6 10 1.0 12 1.0
 7
 8
 9
 10 13 1.0
 11
 12
 13

 1 2 1.0 3 1.0 11 1.0
 2
 3 5 1.0 6 2.0
 4
 5 7 1.0 8 1.0 9 1.0
 6 10 1.0 12 1.0
 7
 8
 9
 10 13 1.0
 11
 12
 13

 1 2 1.0 3 1.0 11 1.0
 2
 3 5 1.0 6 2.0
 4
 5 7 1.0 8 1.0 9 1.0
 6 10 1.0 12 1.0
 7
 8
 9
 10 13 1.0
 11
 12
 13

 1 2 1.0 3 1.0 11 1.0
 2
 3 5 1.0 6 2.0
 4
 5 7 1.0 8 1.0 9 1.0
 6 10 1.0 12 1.0
 7
 8
 9
 10 13 1.0
 11
 12
 13















