%chk=tsb1.chk
#p freq rb3lyp/6-311++g(d,p) opt=QST2

Ala-S-opt-freq-6-311++g(d,p)

0 1
 N                 -1.41515100   -1.08615600   -0.44236500
 H                 -1.19240600   -1.65850100    0.36639900
 C                 -0.65403300    0.15792400   -0.40998100
 H                 -0.62200700    0.57996900   -1.41901100
 C                 -1.19794600    1.24002200    0.55105600
 C                  0.77508800   -0.16870700   -0.01055400
 H                 -1.20782500    0.87042500    1.58010800
 H                 -0.59728800    2.15221100    0.50792000
 H                 -2.22252900    1.49551300    0.26808300
 O                  1.10760900   -1.09841200    0.68073300
 H                 -2.41213400   -0.90308000   -0.44561800
 O                  1.65384200    0.74679000   -0.48074100
 H                  2.52999200    0.50410200   -0.14439700

Ala-S-opt-freq-cpcm-w-pb1-6-311++gdp

0 1
 N                  1.21817500   -1.19358000   -0.54017500
 H                  2.18037500   -1.11795700   -0.85749500
 C                  0.64245300    0.15186700   -0.42730100
 H                  0.69709500    0.62006500   -1.41189200
 C                  1.33550300    1.07516500    0.59708100
 C                 -0.84032900    0.07303200   -0.09765000
 H                  2.38530800    1.19472900    0.31953900
 H                  0.87226700    2.06519000    0.61876300
 H                  1.28959700    0.64446700    1.60077400
 O                 -1.68647700    0.81070700   -0.55226100
 H                  1.24610600   -1.64335700    0.37097000
 O                 -1.11983400   -0.88216800    0.80909700
 H                 -2.07037400   -0.85603600    1.00360700

