%chk=Ala-S-qst2-cpcm-w-tsa3-6-311++gdp.chk
#p freq rb3lyp/6-311++g(d,p) opt=QST2

Ala-S-opt-freq-cpcm-w-pa2-6-311++gdp

0 1
 N                 -1.37183100   -1.21774900    0.50655800
 H                 -2.29503800   -1.18914200    0.08501800
 C                 -0.64212100   -0.01951400    0.26692000
 H                  1.07410700    1.66215400   -0.82886000
 C                 -1.40493100    1.25152000    0.49776500
 C                  0.65568500   -0.06226200   -0.05844900
 H                 -1.86850800    1.23947100    1.49021700
 H                 -0.76715500    2.13346400    0.43771600
 H                 -2.21212100    1.36915200   -0.23498800
 O                  1.33235600   -1.25610000   -0.10451500
 H                 -0.88082800   -2.03754500    0.16771700
 O                  1.49692600    1.01354100   -0.25501800
 H                  2.01374500   -1.19988700   -0.78760500

Ala-S-opt-freq-cpcm-w-pa3-6-311++gdp

0 1
 N                  1.39701100    1.14172600   -0.04934000
 H                  2.33548800    1.06976100    0.28994200
 C                  0.65081000   -0.04274600    0.32991800
 H                 -2.44143500   -0.76957300    0.05995000
 C                  1.24340100   -1.28003600   -0.34800100
 C                 -0.80979700    0.13914200   -0.03123200
 H                  2.29104800   -1.36536100   -0.08003000
 H                  0.73667300   -2.18218600   -0.03043800
 H                  1.17430300   -1.19561300   -1.42780400
 O                 -1.28785700    1.11832300   -0.50590300
 H                  0.99763100    1.96439100    0.35633200
 O                 -1.53183600   -0.92467800    0.27604300
 H                  0.65119700   -0.21071500    1.40739200

