%chk=Phe-S-qst2-tsa3-6-311++gdp.chk
#p freq rb3lyp/6-311++g(d,p) opt=QST2

Phe-S-opt-freq-cpcm-w-pa2-6-311++gdp

0 1
 N                 -3.00422500   -0.89129000   -1.20479500
 H                 -2.86617700   -0.86162400   -2.21138300
 C                 -1.82663000   -0.49238300   -0.49751300
 H                 -0.13364700    0.34082000    1.21680500
 C                 -0.61693900   -1.34627300   -0.82210700
 C                 -1.89260700    0.47374000    0.43038800
 H                 -0.72249000   -2.32120100   -0.33116400
 H                 -0.65407700   -1.55544100   -1.89872900
 C                  0.74770400   -0.76738000   -0.50461200
 O                 -3.03240000    1.21816000    0.58425500
 C                  1.26544600    0.29413300   -1.26180700
 C                  1.52895000   -1.28776600    0.53499800
 H                  0.67545800    0.70536700   -2.07428300
 C                  2.52287100    0.82268400   -0.98300000
 C                  2.79100400   -0.75751600    0.81844900
 H                  1.15048500   -2.11740700    1.12362600
 H                  2.90756900    1.64157500   -1.58058000
 C                  3.29021800    0.29884000    0.06071100
 H                  3.38026900   -1.17521600    1.62696200
 H                  4.26939200    0.71068000    0.27683900
 H                 -3.79500400   -0.29928800   -0.97711900
 O                 -0.93761500    0.86949800    1.32896000
 H                 -3.10024900    1.49437100    1.50760500

Phe-S-opt-freq-cpcm-w-pa3-6-311++gdp

0 1
 N                 -3.06393700   -0.62022700   -1.42923300
 H                 -2.96449300   -0.64990000   -2.43904000
 C                 -1.86498000   -0.03394400   -0.83311200
 H                 -0.31795100    0.75365500    0.89380400
 C                 -0.70652600   -1.06707300   -0.90509500
 C                 -2.19677600    0.42603000    0.58799300
 H                 -0.93317000   -1.89879100   -0.23392100
 H                 -0.73047100   -1.47010100   -1.92178100
 C                  0.68359900   -0.52919200   -0.62670100
 O                 -3.31711200    0.45266900    1.03920000
 C                  1.27278400    0.41589600   -1.48221900
 C                  1.42564800   -0.98542100    0.47140900
 H                  0.72526000    0.77291400   -2.34839300
 C                  2.55891300    0.89275400   -1.24180100
 C                  2.71565600   -0.50860500    0.71377800
 H                  0.99295200   -1.72363800    1.13865800
 H                  2.99734900    1.61993300   -1.91585700
 C                  3.28482900    0.43216100   -0.14142400
 H                  3.27267100   -0.87675100    1.56782900
 H                  4.28645500    0.80272300    0.04407500
 H                 -3.87601200   -0.04898800   -1.21833100
 O                 -1.17272200    0.87259900    1.34161400
 H                 -1.53739000    0.87977900   -1.35356400

