%chk=E:\YangJ\Amiano\phe\ts1\s\ts1-p\Phe-S-ts1-p-6-311++gdp-cpcm.chk
# opt freq rb3lyp/6-311++g(d,p) scrf=(cpcm,solvent=water)

Phe-S-opt-freq-ts1-6-311++gdp

0 1
 N                 -2.95046100   -1.38636000   -0.19917000
 H                 -3.29692100   -0.96810200   -1.05825000
 C                 -1.69119300   -0.76733700    0.21100300
 H                 -1.40287300   -1.18513000    1.17695200
 C                 -0.58696000   -1.08596600   -0.82776900
 C                 -1.81016000    0.72821600    0.39943200
 H                 -0.57341600   -2.17473600   -0.92049300
 H                 -0.89391600   -0.68034600   -1.79574100
 C                  0.78801700   -0.57125900   -0.46023000
 O                 -2.31848000    1.53690700   -0.45029900
 C                  1.32503200    0.56115500   -1.08276700
 C                  1.54949100   -1.21846500    0.52206400
 H                  0.75506900    1.06956500   -1.85374000
 C                  2.58761700    1.04047700   -0.72986600
 C                  2.81011300   -0.74272300    0.87739900
 H                  1.15573800   -2.10538800    1.00838600
 H                  2.98797300    1.91786000   -1.22555000
 C                  3.33310100    0.39081000    0.25261700
 H                  3.38624900   -1.25901500    1.63723400
 H                  4.31482000    0.76034100    0.52661400
 H                 -3.66692000   -1.25970000    0.50928900
 O                 -1.43179700    1.38109000    1.42956600
 H                 -2.01490344    2.65510666   -0.42700695

