%chk=Ala-S-opt-freq-tsa3-6-31g.chk
#p opt=(calcfc,ts) freq rb3lyp/6-31g iop(1/11=1)

Ala-S-opt-freq-tsa3-6-31g

0 1
 N                  1.03682335    1.37146172    0.03675606
 H                  2.03405335    1.44738772   -0.04570794
 C                  0.41888235    0.12304172    0.01152206
 H                 -0.14497471   -1.21250586   -0.01810680
 C                  1.32690835   -1.07504228    0.00384206
 C                 -0.92215965    0.01654372    0.00504506
 H                  1.97242535   -1.07795428    0.89249806
 H                  0.74564135   -1.99755028    0.00086206
 H                  1.98213335   -1.06799228   -0.87868694
 O                 -1.73144065    1.16775072   -0.08625694
 H                  0.47447535    2.19924572   -0.05996594
 O                 -1.61240765   -1.19898728    0.10915106
 H                 -2.34446865    1.21589972    0.67868206

 1 2 1.0 3 1.0 11 1.0
 2
 3 5 1.0 6 2.0
 4
 5 7 1.0 8 1.0 9 1.0
 6 10 1.0 12 1.0
 7
 8
 9
 10 13 1.0
 11
 12
 13

 1 2 1.0 3 1.0 11 1.0
 2
 3 5 1.0 6 2.0
 4
 5 7 1.0 8 1.0 9 1.0
 6 10 1.0 12 1.0
 7
 8
 9
 10 13 1.0
 11
 12
 13

 1 2 1.0 3 1.0 11 1.0
 2
 3 5 1.0 6 2.0
 4
 5 7 1.0 8 1.0 9 1.0
 6 10 1.0 12 1.0
 7
 8
 9
 10 13 1.0
 11
 12
 13

 1 2 1.0 3 1.0 11 1.0
 2
 3 5 1.0 6 2.0
 4
 5 7 1.0 8 1.0 9 1.0
 6 10 1.0 12 1.0
 7
 8
 9
 10 13 1.0
 11
 12
 13

 1 2 1.0 3 1.0 11 1.0
 2
 3 5 1.0 6 2.0
 4
 5 7 1.0 8 1.0 9 1.0
 6 10 1.0 12 1.0
 7
 8
 9
 10 13 1.0
 11
 12
 13











