%chk=Phe-R-opt-freq-6-311gdp.chk
# freq rb3lyp/6-311++g(d,p) scrf=check guess=tcheck

Phe-R-opt-freq-ts--6-311++gdp

0 1
 C                 -1.36344800    0.27650700    0.36435100
 H                 -1.01139200   -0.14912700    1.31172300
 C                 -2.75002100   -0.26824200    0.13863200
 O                 -3.08155500   -1.53348300    0.11626500
 O                 -3.82136200    0.44238400   -0.10150900
 H                 -4.22573100   -0.84640900   -0.13457500
 C                 -0.41847900   -0.26378700   -0.76206200
 H                 -0.68519000   -1.30656800   -0.96362300
 H                 -0.63348200    0.31007100   -1.67318100
 C                  1.04904000   -0.17061900   -0.40011700
 C                  1.73615900    1.05590400   -0.42928700
 C                  1.75026500   -1.32697100   -0.01629200
 C                  3.08946800    1.12097900   -0.08177600
 H                  1.19994800    1.95607900   -0.70601300
 C                  3.10434600   -1.26324100    0.33122300
 H                  1.23296200   -2.28272500    0.00425300
 C                  3.77813500   -0.03741000    0.29894600
 H                  3.60664500    2.07524200   -0.10965400
 H                  3.63041400   -2.16755600    0.62135000
 H                  4.82938700    0.01480400    0.56472000
 N                 -1.31776100    1.72433500    0.46114700
 H                 -1.79389500    2.21008900   -0.29094300
 H                 -1.55479500    2.10583400    1.36815400

