%chk=E:\YangJ\Amiano\Ala\opt-rs\r\Ala-R-opt-freq-6-311gdp.chk
# opt freq b3lyp/6-311++g(d,p)

Ala-R-opt-freq-6-311++g(d,p)

0 1
 C                  0.66545000    0.13696400   -0.39831400
 H                  0.64283300    0.49218400   -1.43312500
 C                 -0.78113900   -0.17245300   -0.00205100
 O                 -1.14527300   -1.13175400    0.63090500
 O                 -1.63920500    0.78381800   -0.43678900
 H                 -2.52538200    0.54071800   -0.12789500
 N                  1.54790400   -1.01753500   -0.32926700
 H                  1.24067500   -1.74720300   -0.96437800
 H                  1.52553400   -1.42019300    0.60337700
 C                  1.20319800    1.27028500    0.49052000
 H                  2.21802800    1.51790300    0.17646300
 H                  0.57730900    2.16124900    0.41941400
 H                  1.23644900    0.95279900    1.53715800

