%chk=Ala-S-opt-freq-qst2-cpcm-w-tsb2-6-311++gdp.chk
#p opt=(calcfc,ts) freq rb3lyp/6-311++g(d,p) scrf=(cpcm,solvent=water) iop(1/11=1)

Ala-S-opt-freq-qst2-cpcm-w-tsb2-6-311++gdp

0 1
 N                  1.27013700   -1.16963000    0.53255600
 H                  1.99548200   -1.63666800    0.00379200
 C                  0.64717900   -0.09487500   -0.22997400
 H                 -0.26429900   -1.10239300   -1.00991100
 C                  1.42726100    1.19642700   -0.36712500
 C                 -0.77228400   -0.02142000    0.00446100
 H                  2.34798200    1.01602400   -0.92969700
 H                  0.86209900    1.96605800   -0.90043200
 H                  1.71892600    1.61199400    0.61008500
 O                 -1.40209900   -1.01799300   -0.50057000
 H                  1.67951400   -0.83459000    1.40317300
 O                 -1.43088500    0.99360200    0.53565100
 H                 -2.37972100    0.88133000    0.37027900

