%chk=Ala-S-opt-freq-cpcm-w-pa3-6-311++gdp.chk
#p freq rhf/6-311++g(d,p) scrf=check guess=tcheck
geom=(connectivity,allcheck) genchk

Ala-S-opt-freq-cpcm-w-pa3-6-311++gdp

0 1
 N                  1.39701100    1.14172600   -0.04934000
 H                  2.33548800    1.06976100    0.28994200
 C                  0.65081000   -0.04274600    0.32991800
 H                 -2.44143500   -0.76957300    0.05995000
 C                  1.24340100   -1.28003600   -0.34800100
 C                 -0.80979700    0.13914200   -0.03123200
 H                  2.29104800   -1.36536100   -0.08003000
 H                  0.73667300   -2.18218600   -0.03043800
 H                  1.17430300   -1.19561300   -1.42780400
 O                 -1.28785700    1.11832300   -0.50590300
 H                  0.99763100    1.96439100    0.35633200
 O                 -1.53183600   -0.92467800    0.27604300
 H                  0.65119700   -0.21071500    1.40739200

 1 2 1.0 3 1.0 11 1.0
 2
 3 5 1.0 6 1.0 13 1.0
 4 12 1.0
 5 7 1.0 8 1.0 9 1.0
 6 10 2.0 12 1.5
 7
 8
 9
 10
 11
 12
 13

