%chk=E:\YangJ\Amiano\Ala\ts1\r\Ala-R-opt-freq-ts1-6-31g.chk
# opt=(calcfc,ts) freq rb3lyp/6-31g

Ala-R-opt-freq-ts1-6-31g

0 1
 C              
 H                  1    1.09431558
 C                  1    1.53146433    2  106.90220023
 O                  3    1.20560577    1  125.58454835    2  138.11737496    0
 O                  3    1.35636596    1  111.85041616    4  179.23729917    0
 H                  4    1.25400926    3   61.45846305    1  174.85179489    0
 N                  1    1.45477163    3  113.60044623    4   18.64158735    0
 H                  7    1.01497341    1  110.92865884    3   61.20508257    0
 H                  7    1.01609976    1  110.16310685    3  -56.37377519    0
 C                  1    1.53740537    7  110.20611154    3  122.97209211    0
 H                 10    1.09079164    1  109.04462318    7   56.99272548    0
 H                 10    1.09115075    1  111.32226758    7  177.58844810    0
 H                 10    1.09423676    1  110.47112325    7  -61.84268779    0

 1 2 1.0 3 1.0 7 1.0 10 1.0
 2
 3 4 2.0 5 1.0
 4
 5
 6
 7 8 1.0 9 1.0
 8
 9
 10 11 1.0 12 1.0 13 1.0
 11
 12
 13

