%chk=Asp-S-opt-freq-cpcm-w-tsa2-6-311++gdp.chk
#p opt=(calcfc,ts) freq rb3lyp/6-311++g(d,p) scrf=(cpcm,solvent=water) nosymm 

Asp-S-opt-freq-cpcm-w-tsa2-6-311++gdp

0 1
 N                 -1.50649050    1.83034564   -0.16590409
 H                 -1.68137950    1.98382564    0.82376791
 C                 -0.65408850    0.65140564   -0.37482909
 H                 -0.07225373   -0.03845638    0.90987270
 C                  0.73870250    0.92487364    0.18519791
 C                 -1.27885550   -0.58957436    0.26761391
 H                  1.11408250    1.86184464   -0.23486709
 H                  0.70613850    1.05962464    1.27006391
 C                  1.73292550   -0.16408436   -0.12899609
 O                 -2.15030850   -1.19281336   -0.56245409
 O                  1.50771150   -1.15207436   -0.79227109
 H                 -2.40729150    1.70800264   -0.61795309
 O                 -1.08512550   -0.96182236    1.40347891
 H                 -2.57758050   -1.92378536   -0.08693309
 O                  2.93836150    0.09009064    0.41471591
 H                  3.54212950   -0.63171436    0.17627091

