%chk=DTS-A-T-6-31g.chk
# opt=(calcfc,ts) freq rb3lyp/6-31g(d,p)  iop(1/11=1)

Title Card Required

0 1
 C                 -3.08979800   -0.60558800   -0.00000200
 C                 -3.59518700    0.70284100    0.00005700
 C                 -1.54445100    1.60362200   -0.00014400
 C                 -1.68346900   -0.75950900   -0.00016600
 C                 -5.23587700   -0.81048800   -0.00011900
 H                 -0.87526400    2.45545600   -0.00018500
 H                 -6.23980500   -1.20127400   -0.00013000
 N                 -4.97007600    0.55681700    0.00054500
 H                 -5.63632000    1.31240000    0.00090500
 N                 -4.12933500   -1.54107800    0.00005600
 N                 -2.86747200    1.84415300    0.00001700
 N                 -0.93713100    0.38659500   -0.00022700
 N                 -1.06469200   -1.95303400   -0.00031500
 H                 -1.62075900   -2.79335200   -0.00021400
 H                  0.56632996   -2.70777395   -0.03613901
 C                  2.48999600   -0.83307700    0.00007600
 N                  1.84157300    0.39696900    0.00005700
 C                  2.44139900    1.64273600   -0.00006900
 C                  4.55911600    0.41454800   -0.00005900
 H                  4.30411500    2.49103500   -0.00013800
 H                  5.63697200    0.52279700   -0.00009400
 C                  3.95237500   -0.80101100    0.00002700
 N                  3.83812900    1.59580500   -0.00009400
 C                  4.69607200   -2.10590300    0.00008400
 H                  5.77886800   -1.94709500    0.00006000
 H                  4.43216400   -2.70674400    0.87803800
 H                  4.43213900   -2.70683000   -0.87780500
 O                  1.81364900    2.72081600    0.00000400
 O                  1.82762100   -1.90803600    0.00019600
 H                  0.40020600    1.19554224    0.03403875

