%chk=Phe-S-opt-freq-cpcm-w-pa2-6-311++gdp.chk
#p freq rb3lyp/6-311++g(d,p) scrf=check guess=tcheck
geom=(connectivity,allcheck) genchk

Phe-S-opt-freq-cpcm-w-pa2-6-311++gdp

0 1
 N                 -3.00422500   -0.89129000   -1.20479500
 H                 -2.86617700   -0.86162400   -2.21138300
 C                 -1.82663000   -0.49238300   -0.49751300
 H                 -0.13364700    0.34082000    1.21680500
 C                 -0.61693900   -1.34627300   -0.82210700
 C                 -1.89260700    0.47374000    0.43038800
 H                 -0.72249000   -2.32120100   -0.33116400
 H                 -0.65407700   -1.55544100   -1.89872900
 C                  0.74770400   -0.76738000   -0.50461200
 O                 -3.03240000    1.21816000    0.58425500
 C                  1.26544600    0.29413300   -1.26180700
 C                  1.52895000   -1.28776600    0.53499800
 H                  0.67545800    0.70536700   -2.07428300
 C                  2.52287100    0.82268400   -0.98300000
 C                  2.79100400   -0.75751600    0.81844900
 H                  1.15048500   -2.11740700    1.12362600
 H                  2.90756900    1.64157500   -1.58058000
 C                  3.29021800    0.29884000    0.06071100
 H                  3.38026900   -1.17521600    1.62696200
 H                  4.26939200    0.71068000    0.27683900
 H                 -3.79500400   -0.29928800   -0.97711900
 O                 -0.93761500    0.86949800    1.32896000
 H                 -3.10024900    1.49437100    1.50760500

 1 2 1.0 3 1.0 21 1.0
 2
 3 5 1.0 6 2.0
 4 22 1.0
 5 7 1.0 8 1.0 9 1.0
 6 10 1.0 22 1.0
 7
 8
 9 11 1.5 12 1.5
 10 23 1.0
 11 13 1.0 14 1.5
 12 15 1.5 16 1.0
 13
 14 17 1.0 18 1.5
 15 18 1.5 19 1.0
 16
 17
 18 20 1.0
 19
 20
 21
 22
 23

