%chk=Ala-S-opt-freq-cpcm-w-pc3-6-311++gdp.chk
#p freq rb3lyp/6-311++g(d,p) scrf=check guess=tcheck
geom=(connectivity,allcheck) genchk

Ala-S-opt-freq-cpcm-w-pc3-6-311++gdp

0 1
 N                 -0.98861300   -1.26623800   -0.06708600
 H                 -1.90885400   -1.59036200   -0.33946400
 C                 -0.69738700   -0.05438200    0.23052300
 H                  1.59768100    0.52735100   -1.19636400
 C                 -1.68280400    1.04608100    0.27509100
 C                  0.82216600    0.13242200    0.55050800
 H                 -2.67534300    0.74496400   -0.05959900
 H                 -1.74481100    1.41145400    1.30563900
 H                 -1.31485700    1.87678200   -0.33065900
 O                  1.46449700   -1.01022100    0.53928700
 H                 -0.16709200   -1.89366400   -0.01611600
 O                  1.26012500    1.09329600   -0.48829600
 H                  0.87827900    0.72933200    1.48251100

 1 2 1.0 3 2.0 11 1.0
 2
 3 5 1.0 6 1.0
 4 12 1.0
 5 7 1.0 8 1.0 9 1.0
 6 10 1.5 12 1.0 13 1.0
 7
 8
 9
 10
 11
 12
 13

