%chk=Ala-S-opt-freq-tsb1-6-31g.chk
# opt=(calcfc,ts) freq rb3lyp/6-31g iop(1/11=1)

Ala-S-opt-freq-tsb1-6-31g

0 1
 N                 -1.48464304   -0.95566198   -0.22513739
 H                 -1.26189804   -1.52800698    0.58362661
 C                 -0.72352504    0.28841802   -0.19275339
 H                 -0.00011698   -1.38319034   -0.24642533
 C                 -1.26743804    1.37051602    0.76828361
 C                  0.70559596   -0.03821298    0.20667361
 H                 -1.27731704    1.00091902    1.79733561
 H                 -0.66678004    2.28270502    0.72514761
 H                 -2.29202104    1.62600702    0.48531061
 O                  1.03811696   -0.96791798    0.89796061
 H                 -2.48162604   -0.77258598   -0.22839039
 O                  1.58434996    0.87728402   -0.26351339
 H                  2.46049996    0.63459602    0.07283061

