%chk=Ala-S-opt-freq-tsb1-6-31g.chk
# opt=(calcfc,ts) freq rb3lyp/6-31g iop(1/11=1)

Ala-S-opt-freq-tsb1-6-31g

0 1
 N                 -1.41515100   -1.08615600   -0.44236500
 H                 -1.19240600   -1.65850100    0.36639900
 C                 -0.65403300    0.15792400   -0.40998100
 H                  0.82088798   -0.61320678   -1.50920046
 C                 -1.19794600    1.24002200    0.55105600
 C                  0.77508800   -0.16870700   -0.01055400
 H                 -1.20782500    0.87042500    1.58010800
 H                 -0.59728800    2.15221100    0.50792000
 H                 -2.22252900    1.49551300    0.26808300
 O                  1.10760900   -1.09841200    0.68073300
 H                 -2.41213400   -0.90308000   -0.44561800
 O                  1.65384200    0.74679000   -0.48074100
 H                  2.52999200    0.50410200   -0.14439700

