%chk=Ala-S-opt-freq-p2-6-31g.chk
# opt freq rb3lyp/6-31g 

Ala-S-opt-freq-p2-6-31g

0 1
 N                 -1.27101400   -1.26300300   -0.41939800
 H                 -1.87497300   -1.62757600    0.30677400
 C                 -0.64215000   -0.00902200   -0.23162600
 H                  0.43052094    1.13037958   -0.90850424
 C                 -1.54621400    1.00209100    0.48271500
 C                  0.76407600    0.05948500    0.04168800
 H                 -1.92240100    0.57589700    1.42910600
 H                 -1.02075400    1.93036900    0.72415700
 H                 -2.41386000    1.23835800   -0.14046000
 O                  1.54852400   -0.90322700    0.56429100
 H                 -0.81953400   -1.95549200   -0.99471300
 O                  1.30901900    1.15081200   -0.49925800
 H                  2.49889700   -0.74003900    0.38011400

