%chk=Ala-S-opt-freq-cpcm-w-pa2-6-311++gdp.chk
#p opt freq rb3lyp/6-311++g(d,p) scrf=(cpcm,solvent=water) nosymm

Ala-S-opt-freq-cpcm-w-pa2-6-311++gdp

0 1
 N                 -1.35149036   -1.20546548    0.09049411
 H                 -2.32211236   -1.03593548    0.32688411
 C                 -0.64080436    0.03472752   -0.12517089
 H                  0.38276036    0.90942448   -1.10289511
 C                 -1.28859136    1.21497452    0.60095111
 C                  0.78675964   -0.02196348   -0.07805189
 H                 -1.49012136    0.95364252    1.65024911
 H                 -0.65625736    2.10338652    0.59122111
 H                 -2.24169136    1.47555052    0.13322511
 O                  1.53029164   -0.95197548    0.48195211
 H                 -1.33718536   -1.80261048   -0.72883689
 O                  1.31754764    0.91149152   -0.80866989
 H                  2.44118064   -0.89814448    0.15112611

