%chk=Ala-S-opt-freq-cpcm-w-pc3-6-311++gdp.chk
#p opt freq rb3lyp/6-311++g(d,p) scrf=(cpcm,solvent=water)  nosymm

Ala-S-opt-freq-cpcm-w-pc3-6-311++gdp

0 1
 N                 -1.14727914   -1.34766445   -0.02184056
 H                 -2.12419345   -1.57238331    0.05948368
 C                 -0.67743476   -0.07680556    0.09386509
 H                  2.23442838    1.24671333   -0.02222806
 C                 -1.63292680    1.07391573    0.13327577
 C                  0.70560179    0.07168670    0.22299785
 H                 -2.41226815    0.93088178    0.89484017
 H                 -1.10009824    2.00151492    0.34320107
 H                 -2.13723984    1.18259456   -0.83654813
 O                  1.58069020   -1.09991070    0.06008919
 H                 -0.46215110   -2.07882427   -0.16803659
 O                  1.26224663    1.33593089   -0.06490520
 H                  0.75361048    0.07916837    1.19178017

