%chk=E:\YangJ\Amiano\phe\ts1\s\Phe-S-opt-freq-ts1-6-31g.chk
# opt=(calcfc,ts) freq rb3lyp/6-31g iop(1/11=1)

Phe-S-opt-freq-ts1-6-31g

0 1
 N                  0.00584462    0.05876653   -0.27591776
 H                  0.00584462    0.05876653    0.74002797
 C                  1.37761367    0.05876653   -0.78365472
 H                  1.34411452   -0.05070936   -1.86942847
 C                  2.19899550    1.33150877   -0.42366068
 C                  2.05787787   -1.17452925   -0.20235703
 H                  1.62817822    2.18933901   -0.79478559
 H                  2.23248218    1.41142792    0.66663602
 C                  3.59889348    1.36161385   -0.99504043
 O                  2.13021996   -1.40984929    0.97914273
 C                  4.70255077    0.99998507   -0.21434343
 C                  3.81822350    1.72844916   -2.32838086
 H                  4.55296758    0.71838233    0.82302148
 C                  5.98912626    1.00042002   -0.75162650
 C                  5.10176915    1.72942028   -2.86896951
 H                  2.97670106    2.02254007   -2.94851658
 H                  6.83213978    0.72137101   -0.12910941
 C                  6.19271898    1.36386330   -2.08115538
 H                  5.25129571    2.01998554   -3.90299165
 H                  7.19296609    1.36721834   -2.49935948
 H                 -0.49653761    0.88069497   -0.59388353
 O                  2.58437373   -1.97813673   -1.14679719
 H                  2.72788681   -2.71232761    0.26756381

 1 2 1.0 3 1.0 21 1.0
 2
 3 4 1.0 5 1.0 6 1.0
 4
 5 7 1.0 8 1.0 9 1.0
 6 10 2.0 22 1.0
 7
 8
 9 11 1.5 12 1.5
 10
 11 13 1.0 14 1.5
 12 15 1.5 16 1.0
 13
 14 17 1.0 18 1.5
 15 18 1.5 19 1.0
 16
 17
 18 20 1.0
 19
 20
 21
 22
 23

 1 2 1.0 3 1.0 21 1.0
 2
 3 4 1.0 5 1.0 6 1.0
 4
 5 7 1.0 8 1.0 9 1.0
 6 10 2.0 22 1.0
 7
 8
 9 11 1.5 12 1.5
 10
 11 13 1.0 14 1.5
 12 15 1.5 16 1.0
 13
 14 17 1.0 18 1.5
 15 18 1.5 19 1.0
 16
 17
 18 20 1.0
 19
 20
 21
 22
 23



