%chk=Ala-S-opt-freq-pb1-6-31g.chk
#p freq rb3lyp/6-31g 

Ala-S-opt-freq-pb1-6-31g

0 1
 N                 -1.26073751   -1.30841689   -0.37778296
 H                 -1.89321051   -1.90883089    0.12887804
 C                 -0.61968451   -0.24040489    0.36894804
 H                 -0.46488072   -0.94206360    1.02056976
 C                 -1.39068651    1.05508811    0.52140004
 C                  0.80161349   -0.18082189    0.14779304
 H                 -2.30784951    0.87695811    1.09584104
 H                 -0.81138051    1.82190511    1.04827304
 H                 -1.69338851    1.47568611   -0.45284596
 O                  1.42929949   -1.22560189    0.65185504
 H                 -1.58452751   -1.08119289   -1.31356096
 O                  1.49364149    0.84639411   -0.37235296
 H                  2.46096049    0.75340111   -0.23150696

 1 2 1.0 3 1.0 11 1.0
 2
 3 5 1.0 6 1.5
 4
 5 7 1.0 8 1.0 9 1.0
 6 10 1.5 12 1.5
 7
 8
 9
 10
 11
 12 13 1.0
 13

