%mem=1gb
%chk=Asp-S-opt-freq-cpcm-w-pa2-6-311++gdp.chk
#p opt freq rb3lyp/6-311++g(d,p) scrf=(cpcm,solvent=water) nosymm

Asp-S-opt-freq-cpcm-w-pa2-6-311++gdp

0 1
 N                 -1.44909836    1.90075852   -0.12476019
 H                 -1.62398736    2.05423852    0.86491181
 C                 -0.59669636    0.72181852   -0.33368519
 H                 -0.27547918   -0.28580871    1.53551490
 C                  0.79609464    0.99528652    0.22634181
 C                 -1.22146336   -0.51916148    0.30875781
 H                  1.17147464    1.93225752   -0.19372319
 H                  0.76353064    1.13003752    1.31120781
 C                  1.79031764   -0.09367148   -0.08785219
 O                 -2.09291636   -1.12240048   -0.52131019
 O                  1.56510364   -1.08166148   -0.75112719
 H                 -2.34989936    1.77841552   -0.57680919
 O                 -1.02773336   -0.89140948    1.44462281
 H                 -2.52018836   -1.85337248   -0.04578919
 O                  2.99575364    0.16050352    0.45585981
 H                  3.59952164   -0.56130148    0.21741481

