%chk=Ala-S-opt-freq-tsb1-6-31g.chk
#p opt=(calcfc,ts) freq rb3lyp/6-31g  iop(1/11=1)

Ala-S-opt-freq-tsb1-6-31g

0 1
 N                 -1.33551736   -1.07140792   -0.44875996
 H                 -1.11277236   -1.64375292    0.36000404
 C                 -0.57439936    0.17267208   -0.41637596
 H                 -0.15068456   -0.94889057    0.30650923
 C                 -1.11831236    1.25477008    0.54466104
 C                  0.85472164   -0.15395892   -0.01694896
 H                 -1.12819136    0.88517308    1.57371304
 H                 -0.51765436    2.16695908    0.50152504
 H                 -2.14289536    1.51026108    0.26168804
 O                  1.18724264   -1.08366392    0.67433804
 H                 -2.33250036   -0.88833192   -0.45201296
 O                  1.73347564    0.76153808   -0.48713596
 H                  2.60962564    0.51885008   -0.15079196

 1 2 1.0 3 1.0 11 1.0
 2
 3 5 1.0 6 1.0
 4
 5 7 1.0 8 1.0 9 1.0
 6 10 2.0 12 1.0
 7
 8
 9
 10
 11
 12 13 1.0
 13

 1 2 1.0 3 1.0 11 1.0
 2
 3 5 1.0 6 1.0
 4
 5 7 1.0 8 1.0 9 1.0
 6 10 2.0 12 1.0
 7
 8
 9
 10
 11
 12 13 1.0
 13



