%chk=Ala-S-opt-freq-cpcm-w-tsb1-6-311++gdp.chk
#p opt=(calcfc,ts) freq rb3lyp/6-311++g(d,p) scrf=(cpcm,solvent=water) iop(1/11=1) nosymm

Ala-S-opt-freq-cpcm-w-tsb1-6-311++gdp

0 1
 N                 -1.29656000   -1.14604900   -0.52857200
 H                 -1.92903300   -1.74646300   -0.02191100
 C                 -0.65550700   -0.07803700    0.21815900
 H                  0.20724200   -1.17980200    0.99161900
 C                 -1.42650900    1.21745600    0.37061100
 C                  0.76579100   -0.01845400   -0.00299600
 H                 -2.34367200    1.03932600    0.94505200
 H                 -0.84720300    1.98427300    0.89748400
 H                 -1.72921100    1.63805400   -0.60363500
 O                  1.39347700   -1.06323400    0.50106600
 H                 -1.62035000   -0.91882500   -1.46435000
 O                  1.45781900    1.00876200   -0.52314200
 H                  2.42513800    0.91576900   -0.38229600

