%chk=Ala-S-opt-freq-pb1-6-31g.chk
# opt freq rb3lyp/6-31g 

Ala-S-opt-freq-pb1-6-31g

0 1
 N                 -1.34777994   -1.25694124   -0.21295718
 H                 -0.67075194   -2.00484324   -0.07513418
 C                 -0.82756094   -0.03013824   -0.34373318
 H                  0.25154500    0.08786200   -1.34802700
 C                 -1.66891094    1.20424876   -0.31920618
 C                  0.63719406   -0.02184624   -0.46547518
 H                 -2.60532094    1.08463476   -0.87662018
 H                 -1.92185794    1.43404676    0.72458882
 H                 -1.11231894    2.05081676   -0.72029518
 O                  1.33444806   -1.08824424   -0.30559518
 H                 -2.31754294   -1.46894324   -0.38477518
 O                  1.19388506    1.26562276   -0.18280118
 H                  2.16581606    1.15251276   -0.19561218

