%chk=E:\YangJ\Amiano\Ser\opt-rs\r\Ser-R-opt-6-311gdp.chk
# opt b3lyp/6-311++g(d,p) geom=connectivity

Ser-R-opt-6-311++g(d,p)

0 1
 C                  0.20621500    0.27005900    0.28955000
 H                  0.29124100    0.38702400    1.38498500
 C                 -1.18019100   -0.30591000    0.04715500
 O                 -1.43442500   -1.45326200   -0.21857600
 O                 -2.13980900    0.63578200    0.21028500
 H                 -2.99472000    0.20975400    0.04652600
 C                  1.28081300   -0.71826300   -0.14486800
 H                  1.11951000   -1.68285500    0.34453400
 H                  1.22934100   -0.85381800   -1.23049600
 O                  2.53326000   -0.14344300    0.24252400
 H                  3.24672400   -0.66934800   -0.12924800
 N                  0.36889500    1.53064800   -0.43612000
 H                 -0.29507500    2.22553100   -0.11355500
 H                  1.30748300    1.88124500   -0.27479500

 1 2 1.0 3 1.0 7 1.0 12 1.0
 2
 3 4 2.0 5 1.0
 4
 5 6 1.0
 6
 7 8 1.0 9 1.0 10 1.0
 8
 9
 10 11 1.0
 11
 12 13 1.0 14 1.0
 13
 14

