%chk=Phe-S-opt-freq-cpcm-w-pa3-6-311++gdp.chk
#p opt freq rb3lyp/6-311++g(d,p) scrf=(cpcm,solvent=water) nosymm

Phe-S-opt-freq-cpcm-w-pa3-6-311++gdp

0 1
 N                 -3.06599951   -0.71186040   -1.33115742
 H                 -2.92795151   -0.68219440   -2.33774542
 C                 -1.88840451   -0.31295340   -0.62387542
 H                 -0.19542151    0.52024960    1.09044258
 C                 -0.67871351   -1.16684340   -0.94846942
 C                 -1.95438151    0.65316960    0.30402558
 H                 -0.78426451   -2.14177140   -0.45752642
 H                 -0.71585151   -1.37601140   -2.02509142
 C                  0.68592949   -0.58795040   -0.63097442
 O                 -3.09417451    1.39758960    0.45789258
 C                  1.20367149    0.47356260   -1.38816942
 C                  1.46717549   -1.10833640    0.40863558
 H                  0.61368349    0.88479660   -2.20064542
 C                  2.46109649    1.00211360   -1.10936242
 C                  2.72922949   -0.57808640    0.69208658
 H                  1.08871049   -1.93797740    0.99726358
 H                  2.84579449    1.82100460   -1.70694242
 C                  3.22844349    0.47826960   -0.06565142
 H                  3.31849449   -0.99578640    1.50059958
 H                  4.20761749    0.89010960    0.15047658
 H                 -3.85677851   -0.11985840   -1.10348142
 O                 -0.99938951    1.04892760    1.20259758
 H                 -2.15394051    0.45831964   -1.16704070

