%chk=Asp-S-qst2-6-311++gdp.chk
#p freq rb3lyp/6-311++g(d,p) opt=QST2

Asp-S-opt-freq-cpcm-w-pa1-6-311++gdp

0 1
 N                 -1.48285600    1.87358200   -0.12883900
 H                 -1.65774500    2.02706200    0.86083300
 C                 -0.63045400    0.69464200   -0.33776400
 H                 -0.56640700    0.51897100   -1.41235600
 C                  0.76233700    0.96811000    0.22226300
 C                 -1.25522100   -0.54633800    0.30467900
 H                  1.13771700    1.90508100   -0.19780200
 H                  0.72977300    1.10286100    1.30712900
 C                  1.75656000   -0.12084800   -0.09193100
 O                 -2.12667400   -1.14957700   -0.52538900
 O                  1.53134600   -1.10883800   -0.75520600
 H                 -2.38365700    1.75123900   -0.58088800
 O                 -1.06149100   -0.91858600    1.44054400
 H                 -2.55394600   -1.88054900   -0.04986800
 O                  2.96199600    0.13332700    0.45178100
 H                  3.56576400   -0.58847800    0.21333600

Asp-S-opt-freq-cpcm-w-pa2-6-311++gdp

0 1
 N                 -1.09469300    1.70456100   -0.69464200
 H                 -1.19255000    2.61982900   -0.26315300
 C                 -0.64607700    0.71954300    0.23385500
 H                  0.09882000   -1.57012000    1.02786400
 C                  0.71180900    0.96843400    0.86527000
 C                 -1.32760600   -0.41217500    0.46749900
 H                  0.99899800    2.00892500    0.72170100
 H                  0.68345800    0.76796700    1.94041900
 C                  1.76373700    0.05628900    0.27678500
 O                 -2.60417700   -0.58152200    0.01402900
 O                  1.76684800   -1.15494200    0.43562800
 H                 -1.99166200    1.45052700   -1.09406400
 O                 -0.86903100   -1.49117600    1.16353000
 H                 -2.76741300   -1.52770300   -0.09560700
 O                  2.68843500    0.68292700   -0.45511800
 H                  3.30543800    0.02316600   -0.81442100

