%chk=E:\YangJ\Amiano\Asp\ts1\r\Asp-R-opt-freq-ts1-6-31g.chk
# opt=(calcfc,ts) freq rb3lyp/6-31g iop(1/11=1)

Asp-R-opt-freq--ts1-6-31g

0 1
 C                  0.00000000    0.00000000    0.00000000
 H                  0.00000000    0.00000000    1.09184619
 C                  1.48802904    0.00000000   -0.48945663
 H                  1.96115597   -0.95477414   -0.25567689
 H                  1.50198065    0.14742222   -1.57300341
 C                  2.32589254    1.06730231    0.17240740
 O                  3.26376699    0.87146839    0.90089758
 C                 -0.61464612   -1.33704823   -0.39771733
 O                 -0.72784987   -2.29286675    0.32275501
 O                 -0.98797857   -1.34702551   -1.70131363
 H                 -1.03166929   -2.44992051   -0.92210167
 N                 -0.84671033    1.08882260   -0.46508489
 H                 -0.96298789    1.05421808   -1.47257615
 H                 -0.43708898    1.98515692   -0.22721955
 O                  1.89782087    2.32469973   -0.13215557
 H                  2.47834398    2.94380423    0.33736707

 1 2 1.0 3 1.0 8 1.0 12 1.0
 2
 3 4 1.0 5 1.0 6 1.0
 4
 5
 6 7 2.0 15 1.0
 7
 8 9 2.0 10 1.0
 9
 10
 11
 12 13 1.0 14 1.0
 13
 14
 15 16 1.0
 16

