%chk=Asp-R-opt-freq-ts1-6-31g.chk
# opt=(calcfc,ts) freq rb3lyp/6-31g

Asp-R-opt-freq-ts1-6-31g

0 1
 C              
 H                  1            B1
 C                  1            B2    2            A1
 H                  3            B3    1            A2    2            D1    0
 H                  3            B4    1            A3    2            D2    0
 C                  3            B5    1            A4    2            D3    0
 O                  6            B6    3            A5    1            D4    0
 C                  1            B7    3            A6    6            D5    0
 O                  8            B8    1            A7    3            D6    0
 O                  8            B9    1            A8    3            D7    0
 H                 10           B10    8            A9    1            D8    0
 N                  1           B11    8           A10    9            D9    0
 H                 12           B12    1           A11    8           D10    0
 H                 12           B13    1           A12    8           D11    0
 O                  6           B14    3           A13    1           D12    0
 H                 15           B15    6           A14    3           D13    0

   B1             1.09184619
   B2             1.56646041
   B3             1.09091509
   B4             1.09361857
   B5             1.50970642
   B6             1.20360182
   B7             1.52435786
   B8             1.20228305
   B9             1.35603834
   B10            1.27615723
   B11            1.45559506
   B12            1.01476923
   B13            1.01379721
   B14            1.36273703
   B15            0.96992215
   A1           108.20756009
   A2           110.18321009
   A3           108.76583578
   A4           112.96771601
   A5           125.64620268
   A6           107.54797668
   A7           125.37534992
   A8           111.60967568
   A9            62.25736342
   A10          109.76709451
   A11          111.00005687
   A12          110.57037890
   A13          112.33343523
   A14          107.02328874
   D1            68.82214770
   D2          -171.81496218
   D3           -50.15942234
   D4           115.63318988
   D5          -163.24336053
   D6            97.54909712
   D7           -80.26517639
   D8           173.11015932
   D9          -134.26600692
   D10          -58.70639433
   D11         -178.57632428
   D12          -63.73760458
   D13          179.35342972

 1 2 1.0 3 1.0 8 1.0 12 1.0
 2
 3 4 1.0 5 1.0 6 1.0
 4
 5
 6 7 2.0 15 1.0
 7
 8 9 2.0 10 1.0
 9
 10
 11
 12 13 1.0 14 1.0
 13
 14
 15 16 1.0
 16

