%chk=E:\YangJ\Amiano\Val\opt-rs\s\Val-S-opt-6-311gdp.chk
# opt freq b3lyp/6-311++g(d,p) geom=connectivity

Val-S-opt-freq-6-311++g(d,p)

0 1
 N                  0.11046500    1.96389900   -0.13427500
 H                 -0.17734200    2.16267000    0.82017300
 C                  0.01653700    0.52580900   -0.39034400
 H                  0.12897600    0.35980500   -1.46530700
 C                  1.15588700   -0.22734300    0.34779800
 C                 -1.34479400   -0.02608200    0.03390900
 C                  1.02223000   -1.75247100    0.23534500
 O                 -1.88702400    0.21270900    1.08580800
 H                  1.03713000   -2.07443600   -0.81095600
 H                  1.85743300   -2.24014100    0.74457000
 H                  0.10048700   -2.12592500    0.68886100
 H                 -0.50750800    2.48427500   -0.74829500
 O                 -1.90909300   -0.81781200   -0.91035600
 H                 -2.75746100   -1.12867300   -0.55677600
 H                  1.06931400    0.04603100    1.40739900
 C                  2.52283200    0.23992200   -0.16727100
 H                  2.61414900    1.32488600   -0.11558200
 H                  3.32574600   -0.20803800    0.42493100
 H                  2.66860500   -0.06593100   -1.20933200

 1 2 1.0 3 1.0 12 1.0
 2
 3 4 1.0 5 1.0 6 1.0
 4
 5 7 1.0 15 1.0 16 1.0
 6 8 2.0 13 1.0
 7 9 1.0 10 1.0 11 1.0
 8
 9
 10
 11
 12
 13 14 1.0
 14
 15
 16 17 1.0 18 1.0 19 1.0
 17
 18
 19

