%chk=Ala-S-opt-freq-p3-6-31g.chk
# opt freq rb3lyp/6-31g

Ala-S-opt-freq-p3-6-31g

0 1
 N                  1.15170400   -1.34806300    0.10459500
 H                  2.12871300   -1.57251200    0.02368200
 C                  0.68157000   -0.07728100   -0.01072600
 H                 -2.23090600    1.24517700    0.10568700
 C                  1.63693700    1.07354100   -0.05068300
 C                 -0.70150200    0.07097500   -0.14020500
 H                  2.15022000    1.17517300    0.91514900
 H                  2.40927200    0.93584700   -0.82038900
 H                  1.10229000    2.00253600   -0.24949600
 O                 -1.57630300   -1.10078100    0.02236800
 H                  0.46670900   -2.07940900    0.25044200
 O                 -1.25874100    1.33502900    0.14763800
 H                 -0.14017647   -0.92980649   -1.18942060

