%chk=E:\YangJ\Amiano\Asp\opt-rs\r\Asp-R-opt-freq-6-311++gdp.chk
# opt freq b3lyp/6-311++g(d,p)

Asp-R-opt-freq-6-311++g(d,p)

0 1
 C                 -0.46147400    0.23738300    0.43308900
 H                 -0.22044100   -0.04813000    1.46094600
 C                  0.53218300   -0.50404500   -0.53454800
 H                  0.32133800   -1.57704900   -0.56544500
 H                  0.38730800   -0.09742900   -1.54295000
 C                  1.97665500   -0.36155000   -0.14250200
 O                  2.79917600   -1.27480300   -0.05834300
 C                 -1.85834600   -0.29340800    0.17316200
 O                 -2.47550200   -1.10163500    0.86446900
 O                 -2.37339200    0.22173300   -1.00270200
 H                 -3.28239100   -0.11431500   -1.15898200
 N                 -0.48127600    1.68773900    0.33569500
 H                 -0.90950000    2.04042700   -0.51187900
 H                  0.40677100    2.12102500    0.55437000
 O                  2.33118400    0.95393000    0.12881500
 H                  3.28000800    0.99721800    0.38095800

