%chk=Ala-S-opt-freq-tsa3-6-31g.chk
#p opt=(calcfc,ts) freq rb3lyp/6-31g iop(1/11=1)

Ala-S-opt-freq-tsa3-6-31g

0 1
 N                  1.26990850    1.29728544    0.04621623
 H                  2.26713850    1.37321144   -0.03624777
 C                  0.65196750    0.04886544    0.02098223
 H                  0.03507086   -1.20785544    0.01143454
 C                  1.55999350   -1.14921856    0.01330223
 C                 -0.68907450   -0.05763256    0.01450523
 H                  2.20551050   -1.15213056    0.90195823
 H                  0.97872650   -2.07172656    0.01032223
 H                  2.21521850   -1.14216856   -0.86922677
 O                 -1.49835550    1.09357444   -0.07679677
 H                  0.70756050    2.12506944   -0.05050577
 O                 -1.37932250   -1.27316356    0.11861123
 H                 -2.11138350    1.14172344    0.68814223

 1 2 1.0 3 1.0 11 1.0
 2
 3 5 1.0 6 2.0
 4
 5 7 1.0 8 1.0 9 1.0
 6 10 1.0 12 1.0
 7
 8
 9
 10 13 1.0
 11
 12
 13

 1 2 1.0 3 1.0 11 1.0
 2
 3 5 1.0 6 2.0
 4
 5 7 1.0 8 1.0 9 1.0
 6 10 1.0 12 1.0
 7
 8
 9
 10 13 1.0
 11
 12
 13



