%chk=Ala-S-opt-freq-tsa3-6-31g.chk
#p opt=(calcfc,ts) freq rb3lyp/6-31g  iop(1/11=1)

Ala-S-opt-freq-tsa3-6-31g

0 1
 N                  1.08947047    1.09246531    0.17714828
 H                  2.08670047    1.16839131    0.09468428
 C                  0.47152947   -0.15595469    0.15191428
 H                 -2.10177253   -1.63806069   -0.55371172
 C                  1.37955547   -1.35403869    0.14423428
 C                 -0.86951253   -0.26245269    0.14543728
 H                  2.02507247   -1.35695069    1.03289028
 H                  0.79828847   -2.27654669    0.14125428
 H                  2.03478047   -1.34698869   -0.73829472
 O                 -1.64626887    0.95256670    0.01932956
 H                  0.52712247    1.92024931    0.08042628
 O                 -1.55976053   -1.47798369    0.24954328
 H                 -0.19839308    0.86568140    1.18509550

 1 2 1.0 3 1.0 11 1.0
 2
 3 5 1.0 6 2.0
 4 12 1.0
 5 7 1.0 8 1.0 9 1.0
 6 10 1.0 12 1.0
 7
 8
 9
 10
 11
 12
 13

 1 2 1.0 3 1.0 11 1.0
 2
 3 5 1.0 6 2.0
 4 12 1.0
 5 7 1.0 8 1.0 9 1.0
 6 10 1.0 12 1.0
 7
 8
 9
 10
 11
 12
 13

 1 2 1.0 3 1.0 11 1.0
 2
 3 5 1.0 6 2.0
 4 12 1.0
 5 7 1.0 8 1.0 9 1.0
 6 10 1.0 12 1.0
 7
 8
 9
 10
 11
 12
 13

 1 2 1.0 3 1.0 11 1.0
 2
 3 5 1.0 6 2.0
 4 12 1.0
 5 7 1.0 8 1.0 9 1.0
 6 10 1.0 12 1.0
 7
 8
 9
 10
 11
 12
 13











