%chk=Ala-S-opt-freq-cpcm-w-tsa3-6-311++gdp.chk
#p opt=(calcfc,ts) freq rb3lyp/6-311++g(d,p) scrf=(cpcm,solvent=water) iop(1/11=1) nosymm

Ala-S-opt-freq-cpcm-w-tsa3-6-311++gdp

0 1
 N                 -1.39096180   -1.06975824    0.39719336
 H                 -2.31416880   -1.04115124   -0.02434664
 C                 -0.66125180    0.12847676    0.15755536
 H                  0.82949957    1.17578874   -1.75424420
 C                 -1.42406180    1.39951076    0.38840036
 C                  0.63655420    0.08572876   -0.16781364
 H                 -1.88763880    1.38746176    1.38085236
 H                 -0.78628580    2.28145476    0.32835136
 H                 -2.23125180    1.51714276   -0.34435264
 O                  1.47194302   -0.85290543    0.38567192
 H                 -0.89995880   -1.88955424    0.05835236
 O                  1.32558083    0.99048758   -0.94905091
 H                  0.22095605   -1.05339590    0.82946926

