%chk=Ala-S-opt-freq-cpcm-w-pb1-6-311++gdp.chk
#p opt freq rb3lyp/6-311++g(d,p) scrf=(cpcm,solvent=water) nosymm

Ala-S-opt-freq-cpcm-w-pb1-6-311++gdp

0 1
 N                 -1.38437783   -1.20043604   -0.48312032
 H                 -2.13567083   -1.61934104    0.05295568
 C                 -0.75235283   -0.11720404    0.27128368
 H                  0.40159083   -1.10803896    0.93543732
 C                 -1.54185083    1.16787896    0.40784368
 C                  0.66408917   -0.03828504    0.04274168
 H                 -2.46542383    0.97861696    0.96279168
 H                 -0.98383783    1.93808396    0.94735068
 H                 -1.83000483    1.58095396   -0.57075432
 O                  1.29063517   -1.05859704    0.52610168
 H                 -1.79554383   -0.84854704   -1.34754632
 O                  1.31497217    0.99094596   -0.45121032
 H                  2.26684917    0.91153696   -0.27413532

