%chk=Ala-S-opt-freq-tsa3-6-31g.chk
#p opt=(calcfc,ts) freq rb3lyp/6-31g iop(1/11=1)

Ala-S-opt-freq-tsa3-6-31g

0 1
 N                  1.20654153    0.89428966    0.24740275
 H                  2.20377153    0.97021566    0.16493875
 C                  0.58860053   -0.35413034    0.22216875
 H                 -2.13893441   -1.84848466   -0.48420217
 C                  1.49662653   -1.55221434    0.21448875
 C                 -0.90667441   -0.47287666    0.21494683
 H                  2.14214353   -1.55512634    1.10314475
 H                  0.91535953   -2.47472234    0.21150875
 H                  2.15185153   -1.54516434   -0.66804025
 O                 -1.71595541    0.67833034    0.12364483
 H                  0.64419353    1.72207366    0.15068075
 O                 -1.59692241   -1.68840766    0.31905283
 H                 -0.31709041    0.70564479    0.33371114

 1 2 1.0 3 1.0 11 1.0
 2
 3 5 1.0 6 1.0
 4 12 1.0
 5 7 1.0 8 1.0 9 1.0
 6 10 1.0 12 1.0
 7
 8
 9
 10
 11
 12
 13

 1 2 1.0 3 1.0 11 1.0
 2
 3 5 1.0 6 1.0
 4 12 1.0
 5 7 1.0 8 1.0 9 1.0
 6 10 1.0 12 1.0
 7
 8
 9
 10
 11
 12
 13

 1 2 1.0 3 1.0 11 1.0
 2
 3 5 1.0 6 1.0
 4 12 1.0
 5 7 1.0 8 1.0 9 1.0
 6 10 1.0 12 1.0
 7
 8
 9
 10
 11
 12
 13

 1 2 1.0 3 1.0 11 1.0
 2
 3 5 1.0 6 1.0
 4 12 1.0
 5 7 1.0 8 1.0 9 1.0
 6 10 1.0 12 1.0
 7
 8
 9
 10
 11
 12
 13

 1 2 1.0 3 1.0 11 1.0
 2
 3 5 1.0 6 1.0
 4 12 1.0
 5 7 1.0 8 1.0 9 1.0
 6 10 1.0 12 1.0
 7
 8
 9
 10
 11
 12
 13

 1 2 1.0 3 1.0 11 1.0
 2
 3 5 1.0 6 1.0
 4 12 1.0
 5 7 1.0 8 1.0 9 1.0
 6 10 1.0 12 1.0
 7
 8
 9
 10
 11
 12
 13

 1 2 1.0 3 1.0 11 1.0
 2
 3 5 1.0 6 1.0
 4 12 1.0
 5 7 1.0 8 1.0 9 1.0
 6 10 1.0 12 1.0
 7
 8
 9
 10
 11
 12
 13

 1 2 1.0 3 1.0 11 1.0
 2
 3 5 1.0 6 1.0
 4 12 1.0
 5 7 1.0 8 1.0 9 1.0
 6 10 1.0 12 1.0
 7
 8
 9
 10
 11
 12
 13

 1 2 1.0 3 1.0 11 1.0
 2
 3 5 1.0 6 1.0
 4 12 1.0
 5 7 1.0 8 1.0 9 1.0
 6 10 1.0 12 1.0
 7
 8
 9
 10
 11
 12
 13

 1 2 1.0 3 1.0 11 1.0
 2
 3 5 1.0 6 2.0
 4 12 1.0
 5 7 1.0 8 1.0 9 1.0
 6 10 1.0 12 1.0
 7
 8
 9
 10
 11
 12
 13



















