%chk=Ala-S-opt-freq-cpcm-w-tsa3-6-311++gdp.chk
#p opt=(calcfc,ts) freq rb3lyp/6-311++g(d,p) scrf=(cpcm,solvent=water) iop(1/11=1) nosymm

Ala-S-opt-freq-cpcm-w-tsa3-6-311++gdp

0 1
 N                  1.15169600   -1.34810300    0.10456000
 H                  2.12871600   -1.57252300    0.02366100
 C                  0.68158000   -0.07730900   -0.01074300
 H                 -2.23082100    1.24523500    0.10579400
 C                  1.63696200    1.07349700   -0.05065900
 C                 -0.70150300    0.07095100   -0.14020400
 H                  1.10244200    2.00238300   -0.25033000
 H                  2.14954100    1.17570200    0.91549100
 H                  2.40985700    0.93540100   -0.81972300
 O                 -1.57642100   -1.10070900    0.02241700
 H                  0.46673100   -2.07948100    0.25040900
 O                 -1.25864700    1.33507500    0.14758200
 H                 -1.11002200   -0.54776500   -1.10758500

