%chk=Phe-S-opt-freq-ts1-6-31g.chk
# opt=(calcfc,ts) freq rb3lyp/6-31g 

Phe-S-opt-freq-ts1-6-31g

0 1
 N              
 H                  1            B1
 C                  1            B2    2            A1
 H                  3            B3    1            A2    2            D1    0
 C                  3            B4    1            A3    2            D2    0
 C                  3            B5    1            A4    5            D3    0
 H                  5            B6    3            A5    1            D4    0
 H                  5            B7    3            A6    1            D5    0
 C                  5            B8    3            A7    1            D6    0
 O                  6            B9    3            A8    1            D7    0
 C                  9           B10    5            A9    3            D8    0
 C                  9           B11    5           A10    3            D9    0
 H                 11           B12    9           A11    5           D10    0
 C                 11           B13    9           A12    5           D11    0
 C                 12           B14    9           A13    5           D12    0
 H                 12           B15    9           A14    5           D13    0
 H                 14           B16   11           A15    9           D14    0
 C                 14           B17   11           A16    9           D15    0
 H                 15           B18   12           A17    9           D16    0
 H                 18           B19   14           A18   11           D17    0
 H                  1           B20    3           A19    6           D18    0
 O                  6           B21    3           A20    1           D19    0
 H                 22           B22    6           A21    3           D20    0

   B1             1.01594573
   B2             1.46271909
   B3             1.09179293
   B4             1.55696392
   B5             1.52370761
   B6             1.09518892
   B7             1.09373457
   B8             1.51231461
   B9             1.20687638
   B10            1.39940080
   B11            1.40016802
   B12            1.08526549
   B13            1.39425600
   B14            1.39274063
   B15            1.08591795
   B16            1.08446654
   B17            1.39326525
   B18            1.08442987
   B19            1.08415875
   B20            1.01442422
   B21            1.34720083
   B22            1.24657274
   A1           110.31117485
   A2           108.44716223
   A3           114.48731462
   A4           106.63459039
   A5           106.67673028
   A6           107.84071294
   A7           114.66131918
   A8           123.92183636
   A9           120.93854228
   A10          120.66397952
   A11          119.44628959
   A12          120.84333392
   A13          120.94189301
   A14          119.56278841
   A15          119.73778014
   A16          120.17536960
   A17          119.82590661
   A18          120.24630230
   A19          110.83285974
   A20          112.94457158
   A21           55.68423856
   D1           173.93232222
   D2           -63.92843504
   D3           121.57441589
   D4           -55.79158558
   D5            59.14414676
   D6          -177.57830931
   D7           -56.10763811
   D8           -98.80308764
   D9            79.96796246
   D10           -1.56628430
   D11          178.58932371
   D12         -178.55577768
   D13            1.83554089
   D14          179.72074808
   D15            0.02370811
   D16         -179.79490903
   D17          179.83243961
   D18          177.54343665
   D19          124.38092842
   D20         -173.49922273

 1 2 1.0 3 1.0 21 1.0
 2
 3 4 1.0 5 1.0 6 1.0
 4
 5 7 1.0 8 1.0 9 1.0
 6 10 2.0 22 1.0
 7
 8
 9 11 1.5 12 1.5
 10
 11 13 1.0 14 1.5
 12 15 1.5 16 1.0
 13
 14 17 1.0 18 1.5
 15 18 1.5 19 1.0
 16
 17
 18 20 1.0
 19
 20
 21
 22
 23

