%chk=Val-S-opt-freq-cpcm-w-tsa2-6-311++gdp.chk
#p opt=(calcfc,ts) freq rb3lyp/6-311++g(d,p) scrf=(cpcm,solvent=water) iop(1/11=1) nosymm

Val-S-opt-freq-cpcm-w-tsa2-6-311++gdp

0 1
 N                 -0.07450617    1.91705927   -0.00049412
 H                 -0.30450417    2.05502127    0.97961888
 C                 -0.07620517    0.48740027   -0.33441412
 H                 -0.81850967   -0.14211685   -1.60433232
 C                  1.06305083   -0.26049773    0.40188288
 C                 -1.43552317   -0.15959573   -0.07024412
 C                  1.00693383   -1.77363073    0.14617288
 O                 -1.80768417   -0.06433673    1.22383788
 H                  1.10431683   -1.99473673   -0.92188012
 H                  1.82843183   -2.27335673    0.66547188
 H                  0.07527183   -2.22333073    0.50040988
 H                 -0.77125617    2.41599227   -0.54532112
 O                 -2.13571117   -0.68382273   -0.90945212
 H                 -2.68524117   -0.46661673    1.32315788
 H                  0.91912883   -0.08841673    1.47580288
 C                  2.43154483    0.30347127   -0.00125512
 H                  2.49642783    1.37499427    0.18961188
 H                  3.22500183   -0.19572873    0.56170788
 H                  2.62072583    0.13478427   -1.06708112

